#     DFTpy    
  CRYSTAL 
    
  PRIMVEC    
  1.1295443167720547    -1.9564281460498731    0.0    
  1.1295443167720547    1.9564281460498731    0.0    
  0.0    0.0    2.126167577586207    
  PRIMCOORD    
  1    1    
  Si    0.0    0.0    0.0    
  BEGIN_BLOCK_DATAGRID_3D    
  3d_datagrid_density    
  BEGIN_DATAGRID_3D#0    
  11    11    11    
  0.0    0.0    0.0    
  1.1295443167720547    -1.9564281460498731    0.0    
  1.1295443167720547    1.9564281460498731    0.0    
  0.0    0.0    2.126167577586207    
  0.05031642984875001    0.09195187094827989    0.25710755881049724    0.47551799153375074    0.5613923669156236    
  0.5648856252476266    0.5613923521063494    0.4755179770655047    0.2571075362419013    0.0919518797194196    
  0.05031642984875001    0.09195187332185935    0.0919731201830944    0.19939942315169243    0.40628217795581517    
  0.5424125269770734    0.560350618335669    0.5603448172974166    0.5424273961996134    0.4062163920791569    
  0.1994513349225903    0.09195187332185935    0.25710753704136363    0.1993994355563334    0.25712421535580665    
  0.40624446860417424    0.5293872823748769    0.552060133059324    0.5437447050837804    0.5520457342519766    
  0.5294587071647585    0.4062164002660696    0.25710753704136363    0.47551799840093306    0.4062821770781558    
  0.40624448909700045    0.4755247851313604    0.5424043489103519    0.5521149838237482    0.5339542565705755    
  0.5339739144137432    0.5520457346379815    0.5424274168508678    0.47551799840093306    0.5613923241824256    
  0.5424125760751839    0.529387285307591    0.542404336055912    0.5613980217822198    0.560354714954679    
  0.5436881532260516    0.5339542058014755    0.5437446533180698    0.5603448387416331    0.5613923241824256    
  0.5648856263486329    0.5603506069578774    0.5520601457917653    0.5521149495080419    0.5603547152167243    
  0.5648695923360306    0.5603547279404355    0.552114953508371    0.5520601540174284    0.5603506421077862    
  0.5648856263486329    0.5613923436035664    0.5603447572462052    0.5437446628722944    0.5339542285631466    
  0.5436881674929459    0.5603546953610489    0.5613980174754903    0.5424043378066682    0.5293873215406607    
  0.5424125773887747    0.5613923436035664    0.4755179557387906    0.5424274256906427    0.5520457826825719    
  0.5339739279165618    0.5339542303254258    0.5521149369315496    0.5424043807481743    0.475524738928189    
  0.40624448186910017    0.40628216519866245    0.4755179557387906    0.2571075399718058    0.40621637665022364    
  0.5294587402916662    0.5520457683418762    0.5437446579458954    0.552060136184336    0.5293873391193414    
  0.4062444547585361    0.25712424113248766    0.19939942220764512    0.2571075399718058    0.09195187695264403    
  0.19945132540347602    0.40621635748302876    0.542427363655998    0.5603447797927655    0.5603506128331205    
  0.5424125234040543    0.40628214114434574    0.19939941753754203    0.0919731338719951    0.09195187695264403    
  0.05031642984875001    0.09195187094827989    0.25710755881049724    0.47551799153375074    0.5613923669156236    
  0.5648856252476266    0.5613923521063494    0.4755179770655047    0.2571075362419013    0.0919518797194196    
  0.05031642984875001    0.08910906186901767    0.13888597900616453    0.3031423185465758    0.4822825991753036    
  0.5364419033533087    0.5328053772769513    0.5364419414631629    0.4822825455711154    0.3031423052799175    
  0.13888601104522189    0.08910906186901767    0.1388859741592144    0.13888594606349655    0.24949414415402987    
  0.42896989384911094    0.525999031478686    0.5288823437377861    0.5288922229764994    0.5259976481602214    
  0.42892179891993254    0.24953323401257815    0.1388859741592144    0.303142293107802    0.2494941570336731    
  0.3031823412851352    0.4289410120614548    0.516940417341323    0.5218582136734086    0.5104332826196966    
  0.5218445406859313    0.5170044315073934    0.42892179331656044    0.303142293107802    0.4822825389819227    
  0.4289698735331312    0.42894099915109096    0.4822585084431333    0.5259853711660569    0.52190488021171    
  0.5008378549977772    0.5008559824362572    0.5218445638216108    0.5259977021344723    0.4822825389819227    
  0.5364418855174502    0.5259990704376479    0.5169404154646762    0.5259853044303866    0.5364782600969514    
  0.5288925399613826    0.5103854011990105    0.5008378055933752    0.5104332130268537    0.5288922262215159    
  0.5364418855174502    0.532805371217247    0.5288823195960565    0.5218582082098981    0.5219049118351912    
  0.5288925722393474    0.5327615543676841    0.5288925412758908    0.5219048772499922    0.5218581692762791    
  0.5288823529394878    0.532805371217247    0.5364419205094245    0.5288921568168242    0.5104332333291359    
  0.5008378185831931    0.5103853808324654    0.528892546699426    0.5364782929403465    0.5259853523620114    
  0.5169404076031578    0.5259991061356896    0.5364419205094245    0.4822825219115673    0.525997700440963    
  0.5218445878574066    0.5008559760578891    0.5008377953156048    0.5219048852116145    0.5259853734288449    
  0.4822585045385637    0.42894101470540136    0.4289698771868248    0.4822825219115673    0.3031423138713024    
  0.4289217831374783    0.5170044567704719    0.521844565926623    0.5104332438046475    0.5218582319556454    
  0.5169404333985611    0.4289409939259035    0.30318233149582313    0.24949417030102417    0.3031423138713024    
  0.13888600947842816    0.24953323568078936    0.42892174047946086    0.5259976374140685    0.5288921545401458    
  0.528882340080967    0.5259990596542901    0.4289698500445745    0.24949414911374423    0.13888595639680745    
  0.13888600947842816    0.08910906186901767    0.13888597900616453    0.3031423185465758    0.4822825991753036    
  0.5364419033533087    0.5328053772769513    0.5364419414631629    0.4822825455711154    0.3031423052799175    
  0.13888601104522189    0.08910906186901767    0.2519827614883708    0.302850238357245    0.41698557340603243    
  0.4841795028368348    0.47095385195178624    0.45317757142822634    0.4709538625617919    0.48417943032901606    
  0.4169855289609197    0.3028502560559953    0.2519827614883708    0.30285022533056766    0.30281118311169347    
  0.3857949984092126    0.47009361366056396    0.4782856632369726    0.4511111618435404    0.45112563141797424    
  0.47827528852011675    0.470077860678231    0.3858011815418057    0.30285022533056766    0.4169855162952105    
  0.38579505203734865    0.4170403217557051    0.47007258802602525    0.4780477707810946    0.4474840125866366    
  0.42989242897019475    0.4474777396571796    0.4780761149264478    0.4700778526680281    0.4169855162952105    
  0.4841794713185608    0.4700936665007903    0.4700725797042795    0.4841482065509767    0.4782773338693829    
  0.44750688331530386    0.4209541103400916    0.4209660405623743    0.44747771292017424    0.47827529934279095    
  0.4841794713185608    0.4709538140450504    0.47828567827701185    0.47804779955730553    0.47827728562730687    
  0.4709902246347266    0.45111726325754925    0.4298731790879931    0.4209540408658526    0.42989241670755657    
  0.45112564685909184    0.4709538140450504    0.4531776037078438    0.4511111479004292    0.4474840138875996    
  0.44750686770761566    0.4511172732694137    0.4531433248660386    0.4511172671265368    0.44750683762990034    
  0.44748395815911496    0.45111119569045666    0.4531776037078438    0.47095380371046214    0.4511255683241102    
  0.4298923996608604    0.4209540467467523    0.4298731645384979    0.4511172510881942    0.4709902259722524    
  0.4782772903011804    0.4780477961966779    0.4782856840209971    0.47095380371046214    0.4841794637022033    
  0.47827530708879773    0.4474777760116666    0.42096607244259393    0.42095402990506836    0.4475068733985267    
  0.4782773402082101    0.48414817534567517    0.4700725793894563    0.47009364742466486    0.4841794637022033    
  0.4169855439668624    0.4700778240746942    0.47807612057020715    0.4474777617038373    0.4298924074614386    
  0.4474840223897046    0.47804782010316865    0.4700725904795957    0.41704032816150605    0.38579506149350906    
  0.4169855439668624    0.30285025179776065    0.38580120157801906    0.4700778448951511    0.4782752796741819    
  0.4511255784095658    0.4511111543350283    0.47828567963884977    0.4700935851371914    0.38579500534056976    
  0.3028112123672922    0.30285025179776065    0.2519827614883708    0.302850238357245    0.41698557340603243    
  0.4841795028368348    0.47095385195178624    0.45317757142822634    0.4709538625617919    0.48417943032901606    
  0.4169855289609197    0.3028502560559953    0.2519827614883708    0.5170648631136964    0.5242643465042257    
  0.514333112632416    0.4584935604695616    0.3930974470146257    0.3659040198706205    0.39309747034583997    
  0.45849351611711997    0.5143330715940997    0.5242643827209635    0.5170648631136964    0.5242643305530894    
  0.5242475841922795    0.5212641488575125    0.4811876920260974    0.4137209902966958    0.3655647062814319    
  0.36556671155529824    0.413716725878028    0.4811902551046665    0.5212575753183176    0.5242643305530894    
  0.5143330827860743    0.5212641794863818    0.5143459912971703    0.48118403986195823    0.42080576874297515    
  0.3650305334384526    0.34332913439421603    0.3650338859561911    0.4208048551791289    0.4811902774541093    
  0.5143330827860743    0.4584935660501742    0.4811877235847162    0.48118400495684294    0.45848806590544244    
  0.4137209387549964    0.3650336878527542    0.335100431454513    0.3350956150368523    0.36503388398148773    
  0.41371673172327245    0.4584935660501742    0.39309742770963096    0.41372102061809296    0.4208058283105281    
  0.41372090190196603    0.39310002310169395    0.36556523568029914    0.3433260813212255    0.33510038129118574    
  0.3433291303721647    0.36556673591207384    0.39309742770963096    0.3659040314616864    0.3655646942499663    
  0.3650305505383048    0.3650336707683507    0.365565243129516    0.36590221331104544    0.365565256832931    
  0.3650336469966718    0.3650305067530409    0.3655647162595289    0.3659040314616864    0.3930974368113694    
  0.36556667123585135    0.34332911295838126    0.3351003732682873    0.34332607852013197    0.36556522396385865    
  0.3931000440239705    0.4137209275520376    0.4208058020330899    0.41372103165170554    0.3930974368113694    
  0.45849352539863536    0.41371675247652484    0.3650339420950918    0.33509563917838275    0.33510037178135316    
  0.36503367938788506    0.4137209750502153    0.4584880451567569    0.4811840223002915    0.4811877130346264    
  0.45849352539863536    0.5143331143429287    0.48119021354809455    0.42080485715892685    0.36503392192299783    
  0.3433291064708309    0.3650305470327763    0.4208058271008652    0.4811840647561244    0.514345960981394    
  0.5212641910670444    0.5143331143429287    0.5242643741352538    0.5212575694064593    0.48119023860686655    
  0.4137167525240029    0.3655666760022994    0.3655646885035761    0.41372102482238365    0.48118766420867914    
  0.521264106659713    0.5242476238825011    0.5242643741352538    0.5170648631136964    0.5242643465042257    
  0.514333112632416    0.4584935604695616    0.3930974470146257    0.3659040198706205    0.39309747034583997    
  0.45849351611711997    0.5143330715940997    0.5242643827209635    0.5170648631136964    0.6865048031584109    
  0.6467057472795079    0.5417480402296954    0.42077613470196057    0.33497352887167203    0.30526189098017814    
  0.3349735558257197    0.4207760772277785    0.5417480364845949    0.6467058121147241    0.6865048031584109    
  0.6467057463580249    0.646715747490861    0.5739039841067617    0.46097107821217254    0.360352563280929    
  0.30536709435026166    0.3053635590869978    0.3603575774631214    0.46097026692015236    0.5739044324745858    
  0.6467057463580249    0.5417480152512845    0.5739039854082428    0.5417407184173546    0.46096924007173584    
  0.3704674075911056    0.30574746262175106    0.2830210634577443    0.3057469921325324    0.37046223124823546    
  0.4609702369369347    0.5417480152512845    0.4207761069662267    0.4609710510123126    0.4609692107438625    
  0.42078320168781697    0.36035485712593984    0.3057442645018492    0.27499312922006786    0.2749944052927284    
  0.3057470113980869    0.3603576055833974    0.4207761069662267    0.33497351742581055    0.36035258652269425    
  0.3704673916474622    0.3603547954558309    0.33496905677495287    0.30536519568711146    0.28302439967499043    
  0.2749930935993998    0.2830210300849747    0.30536355991499464    0.33497351742581055    0.3052618894553243    
  0.30536707351386344    0.30574746539296505    0.3057442653013344    0.3053652067730678    0.3052660763708347    
  0.3053652154568574    0.3057442545104945    0.30574742967279384    0.30536710787511884    0.3052618894553243    
  0.3349735302065556    0.3053635265023113    0.28302101646051997    0.27499309629935154    0.28302439981525085    
  0.30536520130606537    0.3349690479018929    0.3603548476697426    0.3704674013019054    0.36035261057787227    
  0.3349735302065556    0.4207760906615548    0.36035762308270425    0.3057470377275926    0.2749943945450449    
  0.27499310130654225    0.3057442740109756    0.3603548524266766    0.4207831966742864    0.46096920558700577    
  0.4609710704855561    0.4207760906615548    0.5417480646860021    0.4609702681488132    0.3704622301680843    
  0.3057470032284245    0.28302102909809906    0.3057474686524944    0.37046742344931916    0.4609692312143305    
  0.5417406843915671    0.5739039881051612    0.5417480646860021    0.6467057823211612    0.5739044240530224    
  0.4609702285254733    0.3603575741116039    0.305363530001323    0.3053670900574542    0.3603525588568293    
  0.4609710510330093    0.5739039856391613    0.6467158068622215    0.6467057823211612    0.6865048031584109    
  0.6467057472795079    0.5417480402296954    0.42077613470196057    0.33497352887167203    0.30526189098017814    
  0.3349735558257197    0.4207760772277785    0.5417480364845949    0.6467058121147241    0.6865048031584109    
  0.7253601901993381    0.6713160982262363    0.5401529711287375    0.40369437155566823    0.3141927734003938    
  0.284430228973111    0.31419276381969047    0.4036943544470829    0.5401529290327528    0.6713161301712153    
  0.7253601901993381    0.6713161028734382    0.67131958652382    0.5789472911664876    0.4478017574826619    
  0.34024028253529737    0.2844551422918973    0.28445571692206617    0.3402405574553696    0.44781213941722886    
  0.5789352343400421    0.6713161028734382    0.5401529228426629    0.5789473314596628    0.5401382626873041    
  0.44781377150050544    0.3508889770032018    0.2847644821230482    0.26207043782039596    0.28476358147120395    
  0.35088085383385514    0.44781214645207595    0.5401529228426629    0.4036943828427794    0.4478017609004944    
  0.4478137733293064    0.40369473025135555    0.34023910635955446    0.28475682222290016    0.2540144099810281    
  0.2540146506431127    0.28476359235490095    0.3402405729968622    0.4036943828427794    0.3141927352804399    
  0.3402402967811022    0.3508889875131477    0.34023908438820966    0.3141939316785771    0.28445629083226914    
  0.262076559946453    0.25401438020321704    0.26207040981315405    0.28445572198935365    0.3141927352804399    
  0.28443023134648077    0.28445514445941084    0.28476450457944164    0.28475680102210355    0.28445628957693697    
  0.28442797319564017    0.2844562907590992    0.28475679627525224    0.28476450254293306    0.2844551599573237    
  0.28443023134648077    0.3141927532564497    0.28445568416736094    0.26207040533487863    0.25401439207677873    
  0.2620765769440882    0.2844562771622435    0.31419391985178075    0.34023908843716477    0.3508890131364351    
  0.3402403045599721    0.3141927532564497    0.4036943420251549    0.34024058216937486    0.284763625020324    
  0.25401466429792313    0.25401439758383076    0.28475679529509196    0.340239127112367    0.40369468853756435    
  0.4478137670999886    0.4478017335372167    0.4036943420251549    0.5401529503308279    0.44781213218350646    
  0.350880870501432    0.2847636136383196    0.2620704060911682    0.28476448261585163    0.35088902960532886    
  0.4478137561337983    0.5401382832285064    0.5789473101869574    0.5401529503308279    0.671316126629232    
  0.5789352182512902    0.4478121081036561    0.34024053227400386    0.2844556904600594    0.2844551417872142    
  0.34024026819154346    0.44780173383446475    0.5789472945361946    0.6713196385942136    0.671316126629232    
  0.7253601901993381    0.6713160982262363    0.5401529711287375    0.40369437155566823    0.3141927734003938    
  0.284430228973111    0.31419276381969047    0.4036943544470829    0.5401529290327528    0.6713161301712153    
  0.7253601901993381    0.6865047977945632    0.6467057405522276    0.5417480429116766    0.4207761366626961    
  0.33497352330275637    0.3052618892283966    0.3349735520361848    0.420776071192772    0.541748032655415    
  0.6467058146917098    0.6865047977945632    0.6467057580861707    0.6467157528003282    0.5739039753243558    
  0.46097106770858004    0.3603525531845315    0.30536708853090655    0.30536356195168696    0.3603575635500414    
  0.46097027302185695    0.5739044359979365    0.6467057580861707    0.5417480168267786    0.5739039846485997    
  0.5417407162358141    0.4609692248171387    0.3704674101111113    0.30574745446710133    0.283021062324219    
  0.30574699380082165    0.3704622176658837    0.46097025880817966    0.5417480168267786    0.42077608517420184    
  0.46097105574472325    0.46096921278166    0.42078319693756877    0.36035485124941613    0.3057442564869627    
  0.2749931319980359    0.27499440830904553    0.30574700560248125    0.360357623789654    0.42077608517420184    
  0.33497350444084206    0.3603525779777491    0.37046740496206626    0.36035480108984164    0.33496905974930885    
  0.30536519916232346    0.28302440182516736    0.2749930995055032    0.2830210251368217    0.3053635676073956    
  0.33497350444084206    0.3052618939669778    0.30536707561874693    0.30574745678533616    0.30574427140250215    
  0.3053652245256977    0.3052660799125069    0.3053652082044809    0.3057442649750915    0.3057474315069283    
  0.30536710736270506    0.3052618939669778    0.3349735273569819    0.30536352159836627    0.2830210211054943    
  0.2749930994773007    0.28302439320043316    0.30536521483975976    0.3349690670495089    0.36035483468047175    
  0.37046739879645807    0.3603526077793974    0.3349735273569819    0.42077607168363784    0.3603576183344456    
  0.3057470333631208    0.27499440686104093    0.27499308491835767    0.30574427311708563    0.360354854946179    
  0.4207832065482383    0.4609692235837673    0.46097105672749117    0.42077607168363784    0.5417480445348924    
  0.46097026451846523    0.3704622306697566    0.3057470076200982    0.28302103756022334    0.3057474704919607    
  0.37046741213704565    0.4609692114480929    0.5417406922536057    0.5739040048193804    0.5417480445348924    
  0.6467057916645171    0.5739044446665857    0.46097021623067563    0.3603575643500603    0.3053635144098769    
  0.3053670976096739    0.36035256579121516    0.46097104789295307    0.5739039822740415    0.6467157991996736    
  0.6467057916645171    0.6865047977945632    0.6467057405522276    0.5417480429116766    0.4207761366626961    
  0.33497352330275637    0.3052618892283966    0.3349735520361848    0.420776071192772    0.541748032655415    
  0.6467058146917098    0.6865047977945632    0.5170648461473728    0.5242643320384028    0.5143331313050479    
  0.45849359263455874    0.39309746513917115    0.3659040025538875    0.39309746898642633    0.45849352848252184    
  0.5143330945308291    0.5242643676693832    0.5170648461473728    0.5242643384029788    0.5242475734624991    
  0.5212641185224827    0.481187686913493    0.4137210129424086    0.3655647028728565    0.36556672320702305    
  0.41371673410544463    0.4811902733166234    0.5212575575349944    0.5242643384029788    0.514333073317415    
  0.5212641721838525    0.5143459792093433    0.4811840472368451    0.4208057790056984    0.36503052922082424    
  0.3433291284640439    0.36503390538469566    0.42080487049226595    0.48119025625737794    0.514333073317415    
  0.4584935638565409    0.48118772536927035    0.4811840277718444    0.4584880495816193    0.4137209583595777    
  0.36503368609989356    0.33510043594011774    0.3350956140718865    0.3650338945011    0.4137167566555371    
  0.4584935638565409    0.3930974410072677    0.4137210099561299    0.42080581019342084    0.41372090399964195    
  0.39310002070941963    0.36556523934101326    0.34332609225946803    0.33510037438927126    0.3433291175311363    
  0.36556673398193396    0.3930974410072677    0.3659040346620065    0.3655647007052713    0.36503054150982733    
  0.365033662762783    0.36556524478013325    0.36590221497070863    0.36556525687666863    0.3650336536495438    
  0.3650304943916821    0.365564733972742    0.3659040346620065    0.3930974215769528    0.36556667216321453    
  0.34332909983511073    0.3351003673738962    0.34332607894911343    0.3655652354425441    0.39310003373739033    
  0.413720918931244    0.4208058031098081    0.41372103034646507    0.3930974215769528    0.4584935547896064    
  0.41371675904028904    0.36503392750276376    0.33509563677893983    0.3351003660889576    0.3650336833239647    
  0.4137209512463639    0.45848802865790994    0.48118402131584054    0.4811877142043198    0.4584935547896064    
  0.5143331061344741    0.48119024577188907    0.420804866606105    0.3650339216494709    0.34332910592170957    
  0.3650305454495699    0.4208058117820562    0.481184034529193    0.5143459756120098    0.5212641934105141    
  0.5143331061344741    0.5242643657120011    0.5212575814636868    0.48119025468150367    0.41371673761183636    
  0.36556667010535304    0.3655646991110465    0.4137210128378856    0.4811876532316339    0.521264131557639    
  0.5242476222020076    0.5242643657120011    0.5170648461473728    0.5242643320384028    0.5143331313050479    
  0.45849359263455874    0.39309746513917115    0.3659040025538875    0.39309746898642633    0.45849352848252184    
  0.5143330945308291    0.5242643676693832    0.5170648461473728    0.25198276288122934    0.30285023245457043    
  0.4169855623678524    0.4841794747448441    0.470953829638287    0.4531775927300079    0.4709538479346102    
  0.48417941655718844    0.4169855286280059    0.30285026756767686    0.25198276288122934    0.3028502262658973    
  0.30281118542411906    0.38579502528023984    0.4700936193668469    0.478285639156265    0.45111116482756    
  0.45112562376862286    0.47827526680075033    0.4700778497651423    0.3858011921827742    0.3028502262658973    
  0.41698552517428633    0.38579504652892327    0.4170403385457651    0.47007259481802605    0.478047757047735    
  0.4474840032108613    0.42989243719126563    0.44747773013834014    0.4780761170020854    0.4700778717400671    
  0.41698552517428633    0.48417948632345825    0.4700936542525408    0.47007257044970086    0.4841482162837481    
  0.47827731616142855    0.4475068809138194    0.42095411242789454    0.42096604549447775    0.44747770949726706    
  0.47827527635750444    0.48417948632345825    0.4709538101336584    0.47828568328748133    0.478047824429534    
  0.4782772749334924    0.4709902238329934    0.451117251960479    0.42987317920367574    0.4209540548489213    
  0.42989242206753814    0.4511256550986647    0.4709538101336584    0.4531776153150355    0.4511111578625892    
  0.4474840170156442    0.4475068716413784    0.4511172596545047    0.45314332009637676    0.45111728351343244    
  0.4475068501014964    0.44748397373782933    0.4511111772564648    0.4531776153150355    0.47095381050453905    
  0.45112558842932005    0.42989240624985403    0.4209540451517835    0.42987316200205433    0.4511172473524945    
  0.4709902406912547    0.4782773023847758    0.478047801945335    0.47828569313776975    0.47095381050453905    
  0.48417941679480236    0.4782753055089328    0.4474777719586069    0.42096606333569714    0.42095403844817025    
  0.4475068781416456    0.47827735582163755    0.48414818392489717    0.4700725797810119    0.47009364306353246    
  0.48417941679480236    0.4169855592472883    0.47007782004181825    0.47807610589450555    0.44747775052738803    
  0.4298924002371124    0.447484022197389    0.4780478200828143    0.4700726123163732    0.4170403029520445    
  0.3857950601513247    0.4169855592472883    0.3028502546327314    0.3858012005167963    0.4700778130647834    
  0.47827530008859437    0.4511255875371738    0.4511111502685684    0.4782856762499599    0.47009358128575107    
  0.3857949992689606    0.30281120614977997    0.3028502546327314    0.25198276288122934    0.30285023245457043    
  0.4169855623678524    0.4841794747448441    0.470953829638287    0.4531775927300079    0.4709538479346102    
  0.48417941655718844    0.4169855286280059    0.30285026756767686    0.25198276288122934    0.08910906040642456    
  0.13888597889236456    0.30314231999067126    0.48228260023691755    0.5364419148670704    0.5328053754875919    
  0.5364419329728454    0.4822825397803262    0.30314230357390937    0.13888600747388372    0.08910906040642456    
  0.13888598706685912    0.1388859406992279    0.2494941486044727    0.4289698948418509    0.5259990435993668    
  0.5288823405552505    0.5288922151441766    0.5259976569699744    0.42892179428037064    0.24953322422646373    
  0.13888598706685912    0.3031423024975022    0.2494941534218307    0.30318234803138855    0.4289410195382286    
  0.5169404256366994    0.521858213978077    0.5104332890258018    0.5218445436690311    0.5170044555840411    
  0.42892176321682607    0.3031423024975022    0.48228256261946195    0.4289698656739262    0.42894099907540095    
  0.48225852149169823    0.5259853677760714    0.5219048907321153    0.5008378570144694    0.5008559791780789    
  0.5218445762539028    0.5259976936818681    0.48228256261946195    0.5364419084261814    0.525999077924577    
  0.5169404114042268    0.5259853098318001    0.5364782621725364    0.5288925287099595    0.5103853932855574    
  0.5008378089312067    0.5104332177300904    0.5288922258849026    0.5364419084261814    0.5328053699245192    
  0.5288823155215964    0.5218582227245431    0.5219049018235368    0.5288925478181613    0.532761555339687    
  0.5288925614171429    0.5219048759687029    0.5218581781243411    0.5288823502893076    0.5328053699245192    
  0.536441922436398    0.528892163067823    0.5104332233541871    0.5008378084504171    0.5103853825879419    
  0.5288925444932001    0.5364782570417109    0.5259853564828425    0.5169404128464348    0.5259991207341931    
  0.536441922436398    0.4822825438137403    0.5259977205534637    0.5218445938447336    0.5008559491119982    
  0.5008378173335213    0.5219048938575122    0.5259853717045555    0.48225850557115796    0.4289410038503583    
  0.42896988372652844    0.4822825438137403    0.3031423236214143    0.4289217948618957    0.5170044589548569    
  0.5218445533154298    0.5104332355800477    0.5218582419013941    0.5169404347192765    0.4289410023890805    
  0.3031823288034861    0.2494941540395571    0.3031423236214143    0.13888599810190788    0.24953322679608805    
  0.4289217375870388    0.5259976538412557    0.52889217398483    0.5288823313201254    0.5259990559817067    
  0.42896986459367925    0.2494941520133988    0.13888596091245972    0.13888599810190788    0.08910906040642456    
  0.13888597889236456    0.30314231999067126    0.48228260023691755    0.5364419148670704    0.5328053754875919    
  0.5364419329728454    0.4822825397803262    0.30314230357390937    0.13888600747388372    0.08910906040642456    
  0.05031642984875001    0.09195187094827989    0.25710755881049724    0.47551799153375074    0.5613923669156236    
  0.5648856252476266    0.5613923521063494    0.4755179770655047    0.2571075362419013    0.0919518797194196    
  0.05031642984875001    0.09195187332185935    0.0919731201830944    0.19939942315169243    0.40628217795581517    
  0.5424125269770734    0.560350618335669    0.5603448172974166    0.5424273961996134    0.4062163920791569    
  0.1994513349225903    0.09195187332185935    0.25710753704136363    0.1993994355563334    0.25712421535580665    
  0.40624446860417424    0.5293872823748769    0.552060133059324    0.5437447050837804    0.5520457342519766    
  0.5294587071647585    0.4062164002660696    0.25710753704136363    0.47551799840093306    0.4062821770781558    
  0.40624448909700045    0.4755247851313604    0.5424043489103519    0.5521149838237482    0.5339542565705755    
  0.5339739144137432    0.5520457346379815    0.5424274168508678    0.47551799840093306    0.5613923241824256    
  0.5424125760751839    0.529387285307591    0.542404336055912    0.5613980217822198    0.560354714954679    
  0.5436881532260516    0.5339542058014755    0.5437446533180698    0.5603448387416331    0.5613923241824256    
  0.5648856263486329    0.5603506069578774    0.5520601457917653    0.5521149495080419    0.5603547152167243    
  0.5648695923360306    0.5603547279404355    0.552114953508371    0.5520601540174284    0.5603506421077862    
  0.5648856263486329    0.5613923436035664    0.5603447572462052    0.5437446628722944    0.5339542285631466    
  0.5436881674929459    0.5603546953610489    0.5613980174754903    0.5424043378066682    0.5293873215406607    
  0.5424125773887747    0.5613923436035664    0.4755179557387906    0.5424274256906427    0.5520457826825719    
  0.5339739279165618    0.5339542303254258    0.5521149369315496    0.5424043807481743    0.475524738928189    
  0.40624448186910017    0.40628216519866245    0.4755179557387906    0.2571075399718058    0.40621637665022364    
  0.5294587402916662    0.5520457683418762    0.5437446579458954    0.552060136184336    0.5293873391193414    
  0.4062444547585361    0.25712424113248766    0.19939942220764512    0.2571075399718058    0.09195187695264403    
  0.19945132540347602    0.40621635748302876    0.542427363655998    0.5603447797927655    0.5603506128331205    
  0.5424125234040543    0.40628214114434574    0.19939941753754203    0.0919731338719951    0.09195187695264403    
  0.05031642984875001    0.09195187094827989    0.25710755881049724    0.47551799153375074    0.5613923669156236    
  0.5648856252476266    0.5613923521063494    0.4755179770655047    0.2571075362419013    0.0919518797194196    
  0.05031642984875001    
  END_DATAGRID_3D    
  END_BLOCK_DATAGRID_3D    