#     DFTpy    
  CRYSTAL 
    
  PRIMVEC    
  1.2108715075796428    -2.0972909725654643    0.0    
  1.2108715075796428    2.0972909725654643    0.0    
  0.0    0.0    2.2792516431724135    
  PRIMCOORD    
  1    1    
  Si    0.0    0.0    0.0    
  BEGIN_BLOCK_DATAGRID_3D    
  3d_datagrid_density    
  BEGIN_DATAGRID_3D#0    
  11    11    11    
  0.0    0.0    0.0    
  1.2108715075796428    -2.0972909725654643    0.0    
  1.2108715075796428    2.0972909725654643    0.0    
  0.0    0.0    2.2792516431724135    
  0.049247528408455844    0.09531137758075549    0.26725489953860526    0.442024965821039    0.46331608138951846    
  0.44646352364428205    0.46331609642168187    0.4420250004897016    0.2672548514884775    0.09531138179260433    
  0.049247528408455844    0.095311358372124    0.0952389554239826    0.2099056844861006    0.39519473507087627    
  0.4643677041835585    0.4423520681894616    0.44240759110226735    0.4643330255540233    0.39509357625931446    
  0.20995004796824815    0.095311358372124    0.2672548243419072    0.20990564202739115    0.2674556535304456    
  0.3950860144057368    0.45979253442709733    0.43700651312446537    0.41691815715398034    0.436980082202056    
  0.4599467944745752    0.3950935657586212    0.2672548243419072    0.4420249913833907    0.39519467654975954    
  0.39508591849463787    0.4419011559706247    0.46430856859359193    0.4371480834639277    0.4066324339594243    
  0.4066852326019434    0.4369799533711108    0.46433306310603606    0.4420249913833907    0.463316032489205    
  0.4643676662544454    0.4597927114026353    0.4643085644995636    0.4634913903055218    0.44238988764526505    
  0.4167870430342131    0.40663247035088307    0.41691810384189254    0.44240749808786883    0.463316032489205    
  0.44646353536890154    0.4423520264652019    0.43700657673241977    0.4371481814595606    0.4423899357096151    
  0.4462757843510905    0.44238996970779015    0.4371481924070916    0.43700650737114205    0.4423521006488954    
  0.44646353536890154    0.4633160164361232    0.44240750999366935    0.4169181129097876    0.40663250801981565    
  0.4167870965124181    0.4423898526503059    0.463491514402384    0.46430860010456787    0.4597927068341479    
  0.46436769550565454    0.4633160164361232    0.44202492213705785    0.46433301455771786    0.43698002382153583    
  0.40668528276702953    0.4066323947249866    0.4371480719912213    0.4643086138005791    0.441901190010348    
  0.39508593991833013    0.39519471810073176    0.44202492213705785    0.2672548551319285    0.395093576377388    
  0.4599467991109346    0.4369799843855989    0.4169181478896197    0.4370064050577598    0.4597926732120033    
  0.3950859243263999    0.2674556441996965    0.20990563177106028    0.2672548551319285    0.09531134277304498    
  0.20995000980811387    0.3950935756342386    0.46433305246967604    0.44240748429763915    0.442352015649681    
  0.4643676150321066    0.39519475290366335    0.2099056770358404    0.09523895662276212    0.09531134277304498    
  0.049247528408455844    0.09531137758075549    0.26725489953860526    0.442024965821039    0.46331608138951846    
  0.44646352364428205    0.46331609642168187    0.4420250004897016    0.2672548514884775    0.09531138179260433    
  0.049247528408455844    0.09228877914120244    0.14712559369655995    0.31098637499350534    0.43969661676082994    
  0.4364496611408809    0.41602136135652695    0.4364497329536839    0.43969660269360944    0.31098630757178924    
  0.1471256049255442    0.09228877914120244    0.1471255520969569    0.1470145920838553    0.26091093181858394    
  0.4096338099282521    0.4436741618760776    0.4129270573010398    0.4129807725810863    0.44363366379123365    
  0.4095727311261131    0.2609242393884046    0.1471255520969569    0.31098631324440745    0.26091095008765514    
  0.3111924848109067    0.4095458328826576    0.4427062129049567    0.4091131969808033    0.3877840449157509    
  0.4090966544923674    0.4428130479175321    0.4095726835793434    0.31098631324440745    0.43969660107759984    
  0.4096337573093997    0.4095457883150951    0.4395716546838862    0.44362781667681284    0.40921620199635655    
  0.3778898216768986    0.377927088455901    0.4090966033402603    0.44363368502933653    0.43969660107759984    
  0.43644962162776435    0.44367413887789775    0.4427063106048264    0.4436277688467681    0.4366077947156365    
  0.41295873996594246    0.3876911061536096    0.37788978357810177    0.38778402239271414    0.41298077315647574    
  0.43644962162776435    0.4160213393395979    0.4129270857134157    0.40911335652175235    0.4092163197173813    
  0.41295878836885125    0.4158581517064144    0.4129587963820181    0.40921631706354555    0.40911327805004305    
  0.4129270952574398    0.4160213393395979    0.4364496326268313    0.4129807408895628    0.38778404991574883    
  0.37788983391234354    0.3876911100342491    0.41295875348148436    0.43660784106635153    0.4436278716970982    
  0.4427062489857137    0.44367423967250086    0.4364496326268313    0.4396965690703936    0.44363368838610495    
  0.40909661362104655    0.3779271676917862    0.37788976936602175    0.4092161801240484    0.44362789133507    
  0.4395716647969321    0.40954575120101383    0.40963378855137933    0.4396965690703936    0.3109862999493911    
  0.4095727124244395    0.44281295800085163    0.4090966494428675    0.38778405821580214    0.40911317940036523    
  0.4427063025823135    0.40954574850580416    0.31119246948738793    0.26091094457784736    0.3109862999493911    
  0.1471255442384098    0.26092419988745175    0.40957270848617083    0.4436336043382199    0.41298071939652686    
  0.4129270370929684    0.4436741857910624    0.40963380629363205    0.2609109591597632    0.14701460661974353    
  0.1471255442384098    0.09228877914120244    0.14712559369655995    0.31098637499350534    0.43969661676082994    
  0.4364496611408809    0.41602136135652695    0.4364497329536839    0.43969660269360944    0.31098630757178924    
  0.1471256049255442    0.09228877914120244    0.26670585740668135    0.3153972391145145    0.40412316101835555    
  0.4181295747896296    0.36979056166862856    0.3440032170246409    0.36979062210834257    0.4181295418765028    
  0.40412310638389576    0.31539722776411633    0.26670585740668135    0.31539715498303367    0.315289353123148    
  0.3836862325965351    0.4236954626339703    0.38729492232341123    0.3427289260486614    0.34275582796661513    
  0.3872715088564673    0.42368246969323187    0.38367120008924416    0.31539715498303367    0.4041230893933903    
  0.383686201745812    0.4042469085573165    0.4236563144376664    0.39254263234799963    0.34141921869633884    
  0.3192140956560987    0.3414149472379474    0.39257517774743117    0.4236824956758604    0.4041230893933903    
  0.4181294958130705    0.4236954253779079    0.42365625916435806    0.41806384359944904    0.38727914022242094    
  0.3414509927070448    0.3104896742255195    0.310499136218709    0.34141492419836417    0.3872715823030009    
  0.4181294958130705    0.3697905634794149    0.3872949015884093    0.3925426864714603    0.38727910087493583    
  0.3698601369420784    0.34274419655319094    0.31918360181909633    0.3104896291455678    0.3192140852746332    
  0.3427557987235934    0.3697905634794149    0.3440032201131049    0.3427288623944613    0.3414193399267161    
  0.3414511194040267    0.34274421927268117    0.3439302615264075    0.34274423993644604    0.3414511168291358    
  0.3414192576812665    0.3427289725115465    0.3440032201131049    0.36979058850472135    0.34275578886505587    
  0.3192141231008236    0.3104897051661331    0.31918356252174834    0.3427442248516614    0.3698601717672611    
  0.38727914764440496    0.3925426181846481    0.38729497372011135    0.36979058850472135    0.4181294712862004    
  0.38727154972429795    0.34141491414234715    0.3104992219144644    0.3104896392196759    0.341450983130712    
  0.3872791115733227    0.4180639290840206    0.4236562336100374    0.42369544746728344    0.4181294712862004    
  0.4041231321073932    0.423682488657964    0.3925751224576373    0.3414149328806657    0.3192141534902272    
  0.34141919143948957    0.39254263590061694    0.42365628166783986    0.4042469471462959    0.38368617053073845    
  0.4041231321073932    0.3153970851877535    0.3836711907841447    0.4236825122026679    0.3872714779700035    
  0.3427557727682767    0.34272887052919376    0.3872948996593707    0.42369545230338906    0.38368623809516905    
  0.31528936448459643    0.3153970851877535    0.26670585740668135    0.3153972391145145    0.40412316101835555    
  0.4181295747896296    0.36979056166862856    0.3440032170246409    0.36979062210834257    0.4181295418765028    
  0.40412310638389576    0.31539722776411633    0.26670585740668135    0.5022564031936699    0.49668968358834786    
  0.4546051840886052    0.3704459187574661    0.29593679199172795    0.2686183158444095    0.2959368565590068    
  0.3704459072267541    0.45460514009535313    0.496689728310213    0.5022564031936699    0.49668958842249844    
  0.496661432813061    0.47106361751993614    0.4014255122026025    0.3184836946882084    0.2684651333955673    
  0.26846857593124196    0.3184807405272223    0.40142562136968407    0.47105484238177214    0.49668958842249844    
  0.45460509727975806    0.4710635389156817    0.4546290704682004    0.4014179369428725    0.32705849045519814    
  0.26844996065420235    0.247450337759567    0.2684497273869341    0.32705927887832587    0.40142564980128886    
  0.45460509727975806    0.37044587397286294    0.40142543726193786    0.40141786555075076    0.37043648657739364    
  0.3184827057728479    0.2684522843463497    0.23992276325149306    0.23992393024594053    0.26844966252433755    
  0.31848080297913284    0.37044587397286294    0.29593679366164843    0.31848364974330423    0.3270585657491336    
  0.31848266088528177    0.2959464056508211    0.2684669523202986    0.24744789751685936    0.23992273489032798    
  0.24745030306753005    0.26846855973262107    0.29593679366164843    0.26861832377472894    0.2684651166187206    
  0.268450046675882    0.2684523805635784    0.2684669626623198    0.2686077711350207    0.26846699169892935    
  0.2684523666086103    0.2684500079813808    0.26846516837102624    0.26861832377472894    0.2959368258048913    
  0.2684685227315197    0.24745033455398152    0.23992276888536548    0.24744787320375594    0.26846695836483403    
  0.29594641911852765    0.31848270684684515    0.3270584960584045    0.3184837338254677    0.2959368258048913    
  0.37044583312534735    0.31848077011196885    0.26844967290785776    0.23992398937010134    0.2399227660015637    
  0.26845226096226865    0.3184826811626271    0.37043656790682233    0.4014178520449067    0.40142546256590755    
  0.37044583312534735    0.45460520032269197    0.4014256642210978    0.3270592503216275    0.2684496980763004    
  0.24745037387004606    0.26844994068367867    0.32705852237097827    0.40141786605746993    0.454629042523598    
  0.4710635519544042    0.45460520032269197    0.49668954383626335    0.47105479666869227    0.401425663226284    
  0.31848071463286953    0.26846850082599527    0.2684651193085356    0.3184836474610733    0.4014254725282743    
  0.4710636116763156    0.49666151564670685    0.49668954383626335    0.5022564031936699    0.49668968358834786    
  0.4546051840886052    0.3704459187574661    0.29593679199172795    0.2686183158444095    0.2959368565590068    
  0.3704459072267541    0.45460514009535313    0.496689728310213    0.5022564031936699    0.5995685613278928    
  0.5534576608240921    0.4419768775694185    0.32305900278655036    0.2433949547963945    0.217083582445093    
  0.24339498825642492    0.3230589608601853    0.44197681207200457    0.5534577079032027    0.5995685613278928    
  0.5534576012168438    0.5534522051426332    0.47504207540262605    0.36184460084785014    0.26669904581180415    
  0.21753285583991688    0.21753291154571283    0.26669968373169944    0.3618436943865603    0.4750414738890165    
  0.5534576012168438    0.4419767799258314    0.47504207792151    0.44198204317188045    0.36184386209805053    
  0.2761473646629096    0.2181148794056505    0.19866543408662146    0.21811428677178574    0.2761475797639332    
  0.36184366567200166    0.4419767799258314    0.32305893437765515    0.36184455783934505    0.36184382343912636    
  0.3230561131454239    0.2666981773036684    0.21811577611961658    0.19183204113225813    0.19183332359586666    
  0.21811425021794245    0.26669968724925097    0.32305893437765515    0.24339492016057607    0.26669899635211936    
  0.27614743486768123    0.2666981396724738    0.2433994832089245    0.21753313308737046    0.19866475132050054    
  0.1918320138700221    0.19866539061388128    0.21753288812097132    0.24339492016057607    0.217083576892209    
  0.2175328776921503    0.21811497641062422    0.21811584549791677    0.21753315346817895    0.2170790101914841    
  0.2175331565548089    0.21811583856047373    0.21811493667415627    0.21753290669488132    0.217083576892209    
  0.24339491270027552    0.2175328889547892    0.1986653925463333    0.1918320382013518    0.1986647597304491    
  0.21753312731459445    0.2433994965642403    0.26669818425550634    0.27614741035463186    0.2666990698132281    
  0.24339491270027552    0.3230589181371103    0.2666996727070399    0.21811423152825352    0.19183335673757998    
  0.1918320030727094    0.21811572341711993    0.2666982052153295    0.32305616911992036    0.3618437833163008    
  0.3618446163902708    0.3230589181371103    0.44197680504429926    0.3618437030966586    0.27614752994513214    
  0.21811428149786172    0.1986654313945914    0.2181148879135077    0.2761474288232348    0.3618438366163013    
  0.4419820300585615    0.4750421158253666    0.44197680504429926    0.5534575772900195    0.47504141665238425    
  0.3618437324863719    0.2666996366793875    0.21753287311887234    0.2175328566809179    0.26669901555757125    
  0.3618446067393387    0.47504205673194194    0.553452329200463    0.5534575772900195    0.5995685613278928    
  0.5534576608240921    0.4419768775694185    0.32305900278655036    0.2433949547963945    0.217083582445093    
  0.24339498825642492    0.3230589608601853    0.44197681207200457    0.5534577079032027    0.5995685613278928    
  0.6059323801107999    0.5510728923673097    0.42707673665566287    0.304007243255526    0.22496983325939757    
  0.19938009897031309    0.22496984692370411    0.30400727116146165    0.42707666960890955    0.551073011725744    
  0.6059323801107999    0.5510728729291913    0.5510621984866654    0.46282885350918945    0.34356969941359156    
  0.24812251267491012    0.2000805574139838    0.20007959156534375    0.2481232337777181    0.34357011298376977    
  0.4628255275315787    0.5510728729291913    0.42707661968912847    0.4628287615163753    0.42708366834948824    
  0.3435688166995942    0.257705747319953    0.20091222088870264    0.18210401125980338    0.20091287617721937    
  0.2577043013878119    0.3435701053999321    0.42707661968912847    0.3040072565983627    0.3435696333639335    
  0.3435687093613382    0.3040042601107474    0.24812021809427762    0.2009164928834612    0.1754993747969023    
  0.17550269873297267    0.20091276758704948    0.24812325178211903    0.3040072565983627    0.22496978436831522    
  0.24812246945078983    0.25770586383066196    0.24812020186120293    0.22497737278797963    0.20007762309714597    
  0.18210435330542624    0.17549938611139335    0.18210396478115837    0.20007954174803297    0.22496978436831522    
  0.19938012179545928    0.20008051502364196    0.2009122391048656    0.2009165633598194    0.2000776595843975    
  0.19937817482776649    0.2000776784190707    0.20091654712253884    0.2009121945608615    0.2000805699303044    
  0.19938012179545928    0.22496978724424035    0.20007952987223968    0.18210397505867645    0.17549941700480537    
  0.1821044000144941    0.20007759851166088    0.22497743398577552    0.24812022333248335    0.25770585817110897    
  0.24812248882129237    0.22496978724424035    0.3040071963895038    0.24812320924252204    0.200912818851427    
  0.1755027310485081    0.17549935239258066    0.20091648589557898    0.2481202472950084    0.30400427007419717    
  0.3435687455616847    0.3435696793819191    0.3040071963895038    0.4270766655128757    0.3435700986398489    
  0.2577042976131146    0.20091281688560564    0.18210400967109375    0.2009121544253964    0.2577058474010835    
  0.34356875462567343    0.42708365543876103    0.46282874766691934    0.4270766655128757    0.5510728720172786    
  0.46282544783423407    0.3435701028086401    0.24812324163485683    0.20007953556979388    0.2000805366490781    
  0.2481224454296743    0.34356972554888227    0.46282884178066136    0.5510622001819276    0.5510728720172786    
  0.6059323801107999    0.5510728923673097    0.42707673665566287    0.304007243255526    0.22496983325939757    
  0.19938009897031309    0.22496984692370411    0.30400727116146165    0.42707666960890955    0.551073011725744    
  0.6059323801107999    0.5995685417574064    0.5534576464926385    0.44197690682929647    0.3230589744861161    
  0.24339494719215807    0.21708358768067243    0.24339499234211057    0.3230589746559656    0.44197685059756264    
  0.5534577144765886    0.5995685417574064    0.5534576082172583    0.5534522165690059    0.4750420813410191    
  0.36184460723130757    0.26669901761902887    0.21753287428819085    0.21753291361974245    0.2666996698038783    
  0.36184373046802737    0.4750414843176074    0.5534576082172583    0.44197680959905233    0.4750420850827586    
  0.4419820290747829    0.3618438837509994    0.2761473651098691    0.21811488398395157    0.1986654191233665    
  0.21811428281026454    0.27614760783657233    0.36184369623617896    0.44197680959905233    0.32305895021719105    
  0.36184455160800927    0.36184381897235307    0.3230561232406024    0.26669817229706727    0.21811577285034445    
  0.19183203822735057    0.19183330434250379    0.2181142380303584    0.26669968079879564    0.32305895021719105    
  0.24339490874682873    0.26669897829117606    0.2761474214885956    0.266698137046635    0.24339947246149593    
  0.2175331241768947    0.19866474732384942    0.19183201152390936    0.19866539116772117    0.21753290732648456    
  0.24339490874682873    0.21708356644936877    0.21753287457345474    0.21811498127880896    0.21811584982564816    
  0.21753316180324392    0.2170790311386857    0.21753314868649823    0.2181158457760027    0.21811494730785919    
  0.21753289964057598    0.21708356644936877    0.2433949095561381    0.21753287562038962    0.19866540909428193    
  0.1918320372351522    0.19866476774875558    0.21753312320143972    0.2433994999305148    0.2666982053637775    
  0.2761473939380471    0.26669907668913656    0.2433949095561381    0.32305893282487874    0.266699670102292    
  0.2181142343529133    0.19183334922892117    0.19183200034877437    0.2181157542888891    0.26669822466953785    
  0.32305614381849196    0.36184379632757485    0.36184458693015326    0.32305893282487874    0.4419768065739832    
  0.3618436941049745    0.27614752730382297    0.2181142755424667    0.19866542191204525    0.2181148658511697    
  0.2761474222875259    0.3618438096127494    0.4419820254236316    0.4750421096084144    0.4419768065739832    
  0.5534575446061327    0.4750414029085553    0.3618437066539123    0.26669962296185545    0.2175328767898355    
  0.2175328598783598    0.2666990360889374    0.3618446172221803    0.47504212081767666    0.5534522889079295    
  0.5534575446061327    0.5995685417574064    0.5534576464926385    0.44197690682929647    0.3230589744861161    
  0.24339494719215807    0.21708358768067243    0.24339499234211057    0.3230589746559656    0.44197685059756264    
  0.5534577144765886    0.5995685417574064    0.5022563696412995    0.49668970095249176    0.45460521126769393    
  0.370445915588516    0.2959368067967094    0.26861833087249287    0.29593685276956505    0.37044589363702435    
  0.4546051428545156    0.496689730958127    0.5022563696412995    0.49668963871873417    0.496661415377663    
  0.471063586017185    0.4014254860901746    0.31848366194847644    0.26846514955509504    0.26846856553468723    
  0.3184807285482628    0.4014256455784451    0.47105481483075007    0.49668963871873417    0.45460509780268443    
  0.4710635550003805    0.45462903583575465    0.4014179271160269    0.3270585112099439    0.26844996030872464    
  0.24745033277689846    0.2684497280038495    0.3270592799093828    0.40142566148045417    0.45460509780268443    
  0.370445838684176    0.40142545107967936    0.40141785262938834    0.37043649347558905    0.3184826867156606    
  0.26845228336401816    0.23992277494070122    0.2399239318358081    0.2684496790267297    0.31848078504270516    
  0.370445838684176    0.29593680825734575    0.31848364938208    0.3270585558246445    0.31848264552663025    
  0.2959464093116339    0.2684669395911203    0.24744791915121384    0.2399227444391146    0.2474503128163616    
  0.26846853870274645    0.29593680825734575    0.2686183329685    0.2684650907416273    0.26845004493137037    
  0.26845237697715185    0.26846695683817295    0.2686077425819633    0.26846697613163933    0.2684523725368202    
  0.26845000036324423    0.2684651865238351    0.2686183329685    0.2959368062822879    0.2684685434863292    
  0.24745034157029044    0.23992278379124943    0.24744787781100594    0.26846695687005356    0.2959464394591383    
  0.3184827140809956    0.3270585095314181    0.3184837159634742    0.2959368062822879    0.3704458277659009    
  0.31848074640313234    0.2684496756319402    0.23992398733000975    0.23992273806873227    0.26845225077621493    
  0.3184826783204012    0.370436568135899    0.4014178582239444    0.4014254726515359    0.3704458277659009    
  0.45460518338630196    0.4014256354877893    0.32705923994064917    0.2684496996748999    0.24745037729542207    
  0.2684499323653817    0.3270585184703397    0.4014178935836992    0.4546290752611141    0.4710635227443447    
  0.45460518338630196    0.49668954270385013    0.471054785554183    0.40142567424937275    0.3184806981093385    
  0.268468525390074    0.26846509636154936    0.3184836423882609    0.40142549504832253    0.47106363348520286    
  0.49666148755147466    0.49668954270385013    0.5022563696412995    0.49668970095249176    0.45460521126769393    
  0.370445915588516    0.2959368067967094    0.26861833087249287    0.29593685276956505    0.37044589363702435    
  0.4546051428545156    0.496689730958127    0.5022563696412995    0.2667058582140961    0.3153971931804653    
  0.4041231490730127    0.4181295766002716    0.36979055527887345    0.34400321252383953    0.3697906289321461    
  0.41812956005550067    0.40412311652611793    0.3153972187065434    0.2667058582140961    0.31539713820235155    
  0.31528931211535627    0.38368624364302745    0.4236954725664604    0.3872949609313984    0.3427289080171041    
  0.34275585116741897    0.38727152332052756    0.42368245041155567    0.383671212332599    0.31539713820235155    
  0.4041230580982711    0.3836861807798951    0.40424694375096926    0.42365634719560663    0.39254260710628447    
  0.3414192325214176    0.31921411271541433    0.3414149722761794    0.39257515761932565    0.4236824639977112    
  0.4041230580982711    0.41812950993691045    0.4236953964978117    0.42365624753496284    0.41806384619332493    
  0.38727915002693425    0.34145100097873665    0.31048965616573193    0.31049915145508644    0.341414885529493    
  0.387271591287943    0.41812950993691045    0.3697905595775736    0.38729489356666624    0.39254267193934705    
  0.38727909453093556    0.3698601261517011    0.3427442130777547    0.31918357142547366    0.3104896461858047    
  0.31921407411187347    0.34275582336624894    0.3697905595775736    0.344003207272168    0.34272889872315176    
  0.3414192950968115    0.3414510944753661    0.34274421840653707    0.3439302776987201    0.34274425031901845    
  0.3414511161965616    0.34141927265934846    0.3427289546680829    0.344003207272168    0.36979057678602223    
  0.3427557917959797    0.3192141029747879    0.3104896536049088    0.31918353996897614    0.34274421241990016    
  0.3698601437672649    0.3872791587754302    0.3925425936484219    0.387294984535103    0.36979057678602223    
  0.4181294841263446    0.38727155472787433    0.3414149002877941    0.31049920842579304    0.3104896654779363    
  0.34145096436343325    0.3872791249872941    0.41806391982252805    0.42365622666392183    0.42369540869388594    
  0.4181294841263446    0.4041231733613778    0.4236824794056027    0.39257512135563416    0.3414149317952989    
  0.3192141545368891    0.3414191922128821    0.39254264340811534    0.4236562494979461    0.404246929818564    
  0.3836861844397651    0.4041231733613778    0.315397078255185    0.3836711896970714    0.42368250704168187    
  0.38727149005940026    0.34275576238592526    0.3427288851240894    0.3872949128864099    0.4236954293116344    
  0.3836862591513987    0.3152893937327073    0.315397078255185    0.2667058582140961    0.3153971931804653    
  0.4041231490730127    0.4181295766002716    0.36979055527887345    0.34400321252383953    0.3697906289321461    
  0.41812956005550067    0.40412311652611793    0.3153972187065434    0.2667058582140961    0.09228878030646542    
  0.14712558671704223    0.3109863585911373    0.43969664817022164    0.4364496748648691    0.4160213423738807    
  0.4364497450327919    0.43969658608208806    0.31098630530042043    0.14712559200522907    0.09228878030646542    
  0.14712556805429497    0.14701457659055592    0.26091094029111694    0.4096338026994326    0.4436742025077039    
  0.4129270359278569    0.41298077740566447    0.44363367992631364    0.4095726832253915    0.2609242305860526    
  0.14712556805429497    0.3109862772347112    0.26091094216038435    0.3111924742506757    0.40954581203434937    
  0.4427062144261428    0.4091131969826348    0.38778406196029436    0.4090966640890387    0.4428130212247146    
  0.4095726647145132    0.3109862772347112    0.43969656162016096    0.40963376781731725    0.4095457731659424    
  0.4395716468811221    0.4436278077738061    0.4092162225469019    0.3778898279651623    0.37792712562353853    
  0.409096608647286    0.44363368212148513    0.43969656162016096    0.43644965346407083    0.4436741480564173    
  0.44270630735056266    0.4436277664005405    0.4366078261337341    0.4129587666565504    0.3876911306930353    
  0.37788980264039684    0.38778401341663143    0.4129807401569887    0.43644965346407083    0.4160213462424813    
  0.41292709594686805    0.4091133133173153    0.4092162841630951    0.4129587835861356    0.41585812961428775    
  0.41295879941363695    0.4092163216477851    0.40911327898421607    0.41292709710804887    0.4160213462424813    
  0.4364496087337001    0.41298076098096453    0.38778402568831594    0.37788982318301845    0.3876911021644067    
  0.412958758491617    0.4366078594415861    0.44362786003586435    0.44270626125359247    0.4436742213566193    
  0.4364496087337001    0.4396965441258695    0.4436336572185323    0.4090966086132714    0.37792716014997896    
  0.3778897684584512    0.4092161343671937    0.44362788182088403    0.43957168798972623    0.4095457383650528    
  0.4096338013013752    0.4396965441258695    0.3109862985496095    0.40957270684864316    0.442812965716499    
  0.4090966609884138    0.38778406225950746    0.4091131975406744    0.44270629402990613    0.4095457732463372    
  0.31119247321348387    0.2609109476252829    0.3109862985496095    0.14712555051562293    0.26092420364037866    
  0.4095727308762865    0.44363360746882974    0.41298072048224044    0.4129270296561998    0.4436741622263068    
  0.4096338018692121    0.2609109307186137    0.14701461912786307    0.14712555051562293    0.09228878030646542    
  0.14712558671704223    0.3109863585911373    0.43969664817022164    0.4364496748648691    0.4160213423738807    
  0.4364497450327919    0.43969658608208806    0.31098630530042043    0.14712559200522907    0.09228878030646542    
  0.049247528408455844    0.09531137758075549    0.26725489953860526    0.442024965821039    0.46331608138951846    
  0.44646352364428205    0.46331609642168187    0.4420250004897016    0.2672548514884775    0.09531138179260433    
  0.049247528408455844    0.095311358372124    0.0952389554239826    0.2099056844861006    0.39519473507087627    
  0.4643677041835585    0.4423520681894616    0.44240759110226735    0.4643330255540233    0.39509357625931446    
  0.20995004796824815    0.095311358372124    0.2672548243419072    0.20990564202739115    0.2674556535304456    
  0.3950860144057368    0.45979253442709733    0.43700651312446537    0.41691815715398034    0.436980082202056    
  0.4599467944745752    0.3950935657586212    0.2672548243419072    0.4420249913833907    0.39519467654975954    
  0.39508591849463787    0.4419011559706247    0.46430856859359193    0.4371480834639277    0.4066324339594243    
  0.4066852326019434    0.4369799533711108    0.46433306310603606    0.4420249913833907    0.463316032489205    
  0.4643676662544454    0.4597927114026353    0.4643085644995636    0.4634913903055218    0.44238988764526505    
  0.4167870430342131    0.40663247035088307    0.41691810384189254    0.44240749808786883    0.463316032489205    
  0.44646353536890154    0.4423520264652019    0.43700657673241977    0.4371481814595606    0.4423899357096151    
  0.4462757843510905    0.44238996970779015    0.4371481924070916    0.43700650737114205    0.4423521006488954    
  0.44646353536890154    0.4633160164361232    0.44240750999366935    0.4169181129097876    0.40663250801981565    
  0.4167870965124181    0.4423898526503059    0.463491514402384    0.46430860010456787    0.4597927068341479    
  0.46436769550565454    0.4633160164361232    0.44202492213705785    0.46433301455771786    0.43698002382153583    
  0.40668528276702953    0.4066323947249866    0.4371480719912213    0.4643086138005791    0.441901190010348    
  0.39508593991833013    0.39519471810073176    0.44202492213705785    0.2672548551319285    0.395093576377388    
  0.4599467991109346    0.4369799843855989    0.4169181478896197    0.4370064050577598    0.4597926732120033    
  0.3950859243263999    0.2674556441996965    0.20990563177106028    0.2672548551319285    0.09531134277304498    
  0.20995000980811387    0.3950935756342386    0.46433305246967604    0.44240748429763915    0.442352015649681    
  0.4643676150321066    0.39519475290366335    0.2099056770358404    0.09523895662276212    0.09531134277304498    
  0.049247528408455844    0.09531137758075549    0.26725489953860526    0.442024965821039    0.46331608138951846    
  0.44646352364428205    0.46331609642168187    0.4420250004897016    0.2672548514884775    0.09531138179260433    
  0.049247528408455844    
  END_DATAGRID_3D    
  END_BLOCK_DATAGRID_3D    