#     DFTpy    
  CRYSTAL 
    
  PRIMVEC    
  1.237980571182172    -2.144245248070661    0.0    
  1.237980571182172    2.144245248070661    0.0    
  0.0    0.0    2.3302796650344826    
  PRIMCOORD    
  1    1    
  Si    0.0    0.0    0.0    
  BEGIN_BLOCK_DATAGRID_3D    
  3d_datagrid_density    
  BEGIN_DATAGRID_3D#0    
  11    11    11    
  0.0    0.0    0.0    
  1.237980571182172    -2.144245248070661    0.0    
  1.237980571182172    2.144245248070661    0.0    
  0.0    0.0    2.3302796650344826    
  0.049664196841430946    0.09784343831975095    0.2730901997146352    0.43232467482307946    0.433429933665086    
  0.41115921521364673    0.43342990382627744    0.43232470479503843    0.27309027809267916    0.09784343547689073    
  0.049664196841430946    0.09784347585234361    0.09772653052310205    0.2157642918830591    0.39333796707405155    
  0.44077682613222724    0.40800620776031515    0.4080714712599879    0.4407276557760291    0.3932466956225282    
  0.21579047950287455    0.09784347585234361    0.27309031054019195    0.2157642622348483    0.27336644169520685    
  0.39321924889353604    0.4388817255135366    0.4036689482421248    0.38107792747925695    0.4036471098691752    
  0.4390339197774758    0.39324672913059167    0.27309031054019195    0.432324749794401    0.39333799239338313    
  0.39321923780906876    0.432142842843002    0.4406999145596875    0.4038313924770944    0.37033147479152273    
  0.3703936221051164    0.4036471847261895    0.440727758500631    0.432324749794401    0.4334300006951041    
  0.44077688478427873    0.4388817125276552    0.44069985377826454    0.43367694236202015    0.4080410601488276    
  0.3809425122374469    0.37033151113153046    0.38107786834750323    0.40807141502973865    0.4334300006951041    
  0.4111591881373204    0.4080061857005144    0.4036688576610991    0.4038313363981873    0.40804100920621045    
  0.41091993685622275    0.4080408986942529    0.4038313529661205    0.4036688973505522    0.40800613332641594    
  0.4111591881373204    0.43342996082728574    0.40807143004059027    0.3810778999733337    0.37033147853389164    
  0.3809424938512213    0.40804099418846823    0.4336770339482063    0.44069980393555047    0.4388817026316426    
  0.440776822048671    0.43342996082728574    0.43232482624656793    0.4407277598639384    0.4036471449141159    
  0.3703936540114552    0.3703315193145402    0.40383138183457956    0.44069985764869246    0.4321428424133813    
  0.39321924283475096    0.39333799947069353    0.43232482624656793    0.2730902912182796    0.3932467316663419    
  0.43903387542257755    0.4036471580763437    0.38107791624038173    0.40366900092074587    0.43888170968422946    
  0.39321926477996444    0.27336647340468573    0.21576424058044472    0.2730902912182796    0.0978434456889393    
  0.21579049390370275    0.3932467184588312    0.4407277821729118    0.40807142331434515    0.40800622879865617    
  0.4407768105522214    0.39333800850669337    0.21576426808381502    0.0977265447507169    0.0978434456889393    
  0.049664196841430946    0.09784343831975095    0.2730901997146352    0.43232467482307946    0.433429933665086    
  0.41115921521364673    0.43342990382627744    0.43232470479503843    0.27309027809267916    0.09784343547689073    
  0.049664196841430946    0.09467953964298317    0.15171650575298526    0.3157940705392499    0.42719705148293113    
  0.40679855888386507    0.3821876795988862    0.40679850567459935    0.42719709452288873    0.3157941024613108    
  0.15171651393656366    0.09467953964298317    0.15171653228207416    0.15156275269932787    0.266999617643773    
  0.4048983792266616    0.41916502049290133    0.3798006100353153    0.37985424822057795    0.4191196542277664    
  0.40484413347271314    0.26699640486032156    0.15171653228207416    0.31579418864781067    0.2669996130019346    
  0.316060007380458    0.40479888984321144    0.42055321286354497    0.3767382326091705    0.35347274538143364    
  0.3767286827448637    0.4206505676951228    0.4048441526578381    0.31579418864781067    0.4271971772652559    
  0.4048984314403563    0.4047988820468076    0.427035437410964    0.41910983619895315    0.3768543085028438    
  0.34321035657670185    0.34324861748286556    0.37672868443837304    0.4191197621400753    0.4271971772652559    
  0.40679855534565545    0.4191650310254088    0.420553171530621    0.41910981891769467    0.4070015862017411    
  0.3798281630557654    0.35337642696300936    0.3432103347739411    0.3534726992674465    0.37985421836277344    
  0.40679855534565545    0.38218765869901056    0.37980062088111555    0.3767381811975654    0.3768542589723813    
  0.37982812756833306    0.38199090681564263    0.3798279994126336    0.3768542397837999    0.3767381585105395    
  0.37980055381650485    0.38218765869901056    0.40679854650941605    0.3798542617400232    0.35347273274296265    
  0.34321029632819966    0.35337642204652886    0.379828131345412    0.4070016684528741    0.419109807585233    
  0.4205531389024945    0.41916501612987467    0.40679854650941605    0.42719717250276945    0.4191197460284942    
  0.3767286683659417    0.3432486044473975    0.343210348042835    0.3768543287266912    0.41910980800373926    
  0.42703539239283134    0.4047988826884185    0.40489840437987956    0.42719717250276945    0.3157941840434308    
  0.4048441802099308    0.42065052768721645    0.3767287053261983    0.3534727529453065    0.3767382522720625    
  0.4205531282554538    0.4047988588760073    0.31606002179646814    0.26699961082790513    0.3157941840434308    
  0.15171652479558273    0.266996388209039    0.40484417888273155    0.41911974150381903    0.3798542094318577    
  0.3798006883530316    0.4191650537380675    0.404898391206985    0.2669996031010254    0.1515627815375422    
  0.15171652479558273    0.09467953964298317    0.15171650575298526    0.3157940705392499    0.42719705148293113    
  0.40679855888386507    0.3821876795988862    0.40679850567459935    0.42719709452288873    0.3157941024613108    
  0.15171651393656366    0.09467953964298317    0.2734793550494129    0.32112352413106543    0.4010924968702048    
  0.3989666198077671    0.3415574120883609    0.31425752489350894    0.34155731082812296    0.3989666608965485    
  0.40109256144433897    0.3211234806441368    0.2734793550494129    0.32112361201480705    0.3210017836408921    
  0.3842252410435501    0.41028440405073635    0.36143972682182374    0.3131786422458527    0.31319901404084366    
  0.3614204462268363    0.4102690560183915    0.38421021933272675    0.32112361201480705    0.401092615715602    
  0.38422520879235206    0.4012360216851063    0.4102404466476681    0.3679814250393717    0.3120061834386828    
  0.2892097000589968    0.3120051832555621    0.3680098048791022    0.41026906856717943    0.401092615715602    
  0.3989666882894179    0.4102844438531898    0.41024047142606146    0.3988909104980039    0.36142478856341936    
  0.3120426341361669    0.28029687941461134    0.28030596368541577    0.31200519572786134    0.3614204947852156    
  0.3989666882894179    0.3415574177912319    0.3614397052604583    0.3679813909677254    0.36142476945197644    
  0.34163759571191527    0.31318759877932156    0.2891794313453449    0.2802968623816121    0.28920969693485576    
  0.31319900022103303    0.3415574177912319    0.3142575055723021    0.3131785985171836    0.31200608023667353    
  0.3120426175849642    0.31318751134228046    0.3141808973728417    0.3131874539930215    0.31204257732442237    
  0.3120061266235251    0.3131786086054193    0.3142575055723021    0.34155740691897346    0.3131990235082359    
  0.28920968632846605    0.2802968158311886    0.2891794055587927    0.3131875845278843    0.3416376645956415    
  0.36142469657343423    0.3679812853413618    0.3614396912407679    0.34155740691897346    0.39896669799747625    
  0.3614205174396118    0.31200518450671827    0.28030597470790625    0.2802968689797971    0.312042646825615    
  0.3614247316680544    0.39889089942326417    0.41024043780502367    0.41028444550035187    0.39896669799747625    
  0.401092658177276    0.41026906517347567    0.3680097873831197    0.3120051905103023    0.289209741843286    
  0.3120062018551081    0.3679813533781256    0.4102404307574995    0.40123605880587543    0.3842252082770494    
  0.401092658177276    0.32112356495928185    0.3842102099499585    0.41026913005916454    0.36142049807536636    
  0.313198993792178    0.3131786971521269    0.3614397290788183    0.41028437358989683    0.3842251650730119    
  0.3210018246655318    0.32112356495928185    0.2734793550494129    0.32112352413106543    0.4010924968702048    
  0.3989666198077671    0.3415574120883609    0.31425752489350894    0.34155731082812296    0.3989666608965485    
  0.40109256144433897    0.3211234806441368    0.2734793550494129    0.4954084182629887    0.4863040283856705    
  0.4359180881905541    0.34553769965704473    0.2700062634965709    0.24315862999614526    0.27000620833179706    
  0.34553771301621883    0.4359181024871835    0.4863040011337249    0.4954084182629887    0.4863041798917302    
  0.4862788712532627    0.4547544058717063    0.3781766298528471    0.29256155029747327    0.24302585416938582    
  0.24302714593234762    0.2925613257195806    0.37817563820938044    0.45474718643819706    0.4863041798917302    
  0.43591822181545054    0.45475442577838354    0.4359410474591704    0.37816977629184784    0.3012440233269513    
  0.2428593675422608    0.22247019659753112    0.24285840365313419    0.3012435645391463    0.37817565723492524    
  0.43591822181545054    0.3455377672206743    0.3781766434909914    0.37816981604029837    0.34552886133258925    
  0.29256043842628143    0.24286178701730524    0.21503027382833953    0.21503384109883475    0.24285841362988686    
  0.2925613636891956    0.3455377672206743    0.27000626991937093    0.2925615449915611    0.30124400978827076    
  0.29256040943853245    0.27001739600971447    0.24302565686435926    0.2224694087461423    0.2150302868060023    
  0.22247018547755293    0.24302715122408214    0.27000626991937093    0.243158634003096    0.243025845259689    
  0.24285926420870907    0.24286177382696478    0.24302560462214337    0.24314885526840452    0.24302553916515465    
  0.24286176840485663    0.24285931815008768    0.24302585155465364    0.243158634003096    0.27000628534160176    
  0.24302717269214902    0.22247018367319005    0.2150302449276697    0.2224694043169878    0.24302566349562976    
  0.2700174375523282    0.29256036013251235    0.3012439078240381    0.2925615343580026    0.27000628534160176    
  0.34553778237344135    0.2925613957638777    0.24285839145779492    0.21503386815354752    0.21503030230820633    
  0.24286182364840267    0.29256037717098654    0.34552887275046057    0.3781697903904425    0.3781766271087282    
  0.34553778237344135    0.4359182414973284    0.37817565072718434    0.3012435423329699    0.24285841887607035    
  0.22247019271017945    0.24285939510326074    0.30124395320151903    0.37816976968585164    0.4359410707443845    
  0.4547544076309551    0.4359182414973284    0.48630411581743915    0.4547471952210404    0.3781756854614206    
  0.29256134520923616    0.2430271365117355    0.24302593460539923    0.2925615663704597    0.3781766264421803    
  0.45475436205999614    0.4862789232132258    0.48630411581743915    0.4954084182629887    0.4863040283856705    
  0.4359180881905541    0.34553769965704473    0.2700062634965709    0.24315862999614526    0.27000620833179706    
  0.34553771301621883    0.4359181024871835    0.4863040011337249    0.4954084182629887    0.5680036964835669    
  0.5221774069189695    0.411728065144209    0.2959041348731962    0.21966494181504703    0.1946205541922856    
  0.21966491726694964    0.29590414727880987    0.4117281254024777    0.5221773989708463    0.5680036964835669    
  0.5221775018045263    0.5221755707761828    0.4443371351060697    0.3333123665069482    0.2418380617288978    
  0.19514103305522665    0.19513998409406008    0.24183917182346637    0.333317554032605    0.44432974729200775    
  0.5221775018045263    0.4117281785355323    0.4443371455390752    0.4117226608654123    0.33332081222475185    
  0.25073587730732816    0.19561910146695305    0.1772808612667004    0.19561816445816477    0.25073228758557203    
  0.3333176034704486    0.4117281785355323    0.2959041898226915    0.3333124210501482    0.33332080907943074    
  0.2959012010345979    0.2418355235607302    0.1956194873367237    0.1707317238735427    0.1707374152865495    
  0.19561815895018375    0.24183923860789722    0.2959041898226915    0.21966496665505558    0.24183810156665184    
  0.2507358301219612    0.24183549903752422    0.21967205139687412    0.1951372634477498    0.17728583191783726    
  0.17073173347781667    0.17728086106545163    0.19513994995640913    0.21966496665505558    0.1946205428945613    
  0.19514100461028214    0.195619040686339    0.19561943794497216    0.19513724035587743    0.19462076663273561    
  0.19513715306226231    0.19561944857949676    0.19561906607327953    0.19514098593062826    0.1946205428945613    
  0.21966493629141365    0.19513999290090983    0.17728087849263158    0.1707316863532233    0.17728584238841488    
  0.19513723039413533    0.21967213758676896    0.24183547687329213    0.25073585039925916    0.2418380934079152    
  0.21966493629141365    0.29590422268005384    0.2418392252439817    0.195618138651423    0.17073742458833158    
  0.17073171907136586    0.19561951029131183    0.24183550231689382    0.2959011648474033    0.3333208043049633    
  0.3333123972984676    0.29590422268005384    0.4117281910780107    0.3333175979035215    0.2507322729720185    
  0.19561817155113367    0.17728088585227678    0.19561909202990616    0.25073583376521397    0.33332075366527053    
  0.4117226987699119    0.44433711670952536    0.4117281910780107    0.5221774392319509    0.4443297099773693    
  0.33331758504269227    0.24183921581152645    0.19513995689014826    0.19514105292760323    0.2418381092569622    
  0.33331238266400137    0.44433709549207556    0.5221756489954256    0.5221774392319509    0.5680036964835669    
  0.5221774069189695    0.411728065144209    0.2959041348731962    0.21966494181504703    0.1946205541922856    
  0.21966491726694964    0.29590414727880987    0.4117281254024777    0.5221773989708463    0.5680036964835669    
  0.565524391465412    0.5128357677546262    0.39350110402869565    0.2765186429447915    0.20223572735569076    
  0.17809525350651176    0.20223571487925207    0.27651867516153344    0.3935011896492037    0.5128357652338453    
  0.565524391465412    0.5128359260028114    0.5128431252965833    0.42778996275416475    0.31376108321279766    
  0.22392528902184447    0.17887255944664773    0.178870596211772    0.22392972339695297    0.31375946426391615    
  0.4277918355214266    0.5128359260028114    0.39350124345555737    0.4277899225782856    0.3934976382648404    
  0.3137611809911755    0.2327640639257295    0.1796304914494291    0.16200837477307806    0.17962882817267378    
  0.23276068388247972    0.3137595069868636    0.39350124345555737    0.2765187066432351    0.31376110921118244    
  0.31376116883627375    0.2765209291229876    0.22392532699903986    0.17962740748693706    0.15573212210833098    
  0.15573312211759147    0.17962888201658278    0.22392975981589    0.2765187066432351    0.2022357614831661    
  0.22392533649239013    0.23276406173040565    0.22392528524488495    0.20223721709852424    0.17887485744962495    
  0.16200838134602938    0.15573214444145356    0.16200834467645142    0.17887054499087957    0.2022357614831661    
  0.17809523061545485    0.1788725367042803    0.17963042608131466    0.17962737879154275    0.17887481771962863    
  0.17808822209075012    0.17887475431303823    0.1796273861526054    0.17963046100349903    0.1788725160658265    
  0.17809523061545485    0.2022357366167445    0.17887055679820715    0.16200836985308947    0.15573212721524288    
  0.16200837489928216    0.178874812387725    0.2022372874584546    0.2239252657055425    0.23276405204070497    
  0.22392529347067147    0.2022357366167445    0.27651875861116765    0.2239297630653629    0.17962884819937483    
  0.1557331430622789    0.15573214186688608    0.17962740077384268    0.223925290523054    0.27652093782423187    
  0.31376117036822776    0.313761104327859    0.27651875861116765    0.39350122514241226    0.3137595005850706    
  0.23276066960578692    0.1796288565328661    0.16200837535908755    0.17963051589529377    0.23276406569258162    
  0.313761179462073    0.3934976639285637    0.42778988861501954    0.39350122514241226    0.5128358516167341    
  0.4277918762469891    0.31375949291910094    0.22392978560881455    0.17887056066199108    0.17887256269308466    
  0.22392529399869962    0.31376111662973893    0.427789939557413    0.5128431511145164    0.5128358516167341    
  0.565524391465412    0.5128357677546262    0.39350110402869565    0.2765186429447915    0.20223572735569076    
  0.17809525350651176    0.20223571487925207    0.27651867516153344    0.3935011896492037    0.5128357652338453    
  0.565524391465412    0.5680037250255756    0.5221774162825846    0.4117280662096129    0.2959041174259379    
  0.21966495177115838    0.1946205686869226    0.21966492126833687    0.29590416159361804    0.41172809885487427    
  0.522177421280927    0.5680037250255756    0.5221774839099769    0.5221755624028122    0.44433713038385786    
  0.33331236114627877    0.24183806314807138    0.19514100196909895    0.19513999202672883    0.24183915848151918    
  0.3333175504821059    0.44432972703371815    0.5221774839099769    0.4117281843968656    0.4443371224985703    
  0.41172267511763777    0.33332080314128104    0.2507358834677373    0.1956190863810529    0.17728088269418624    
  0.19561814817892    0.2507322789088188    0.33331758346585716    0.4117281843968656    0.29590421675290035    
  0.33331241354673485    0.33332079494798533    0.29590119207029936    0.24183549617254735    0.19561948269683505    
  0.17073172629135497    0.17073741441647616    0.19561815849691708    0.2418392342794616    0.29590421675290035    
  0.2196649478720976    0.24183809233314013    0.2507358483228123    0.241835483008261    0.21967207659127885    
  0.1951372629316515    0.17728585062315644    0.17073172171566306    0.17728085383456682    0.1951399617973352    
  0.2196649478720976    0.194620542195377    0.19514100408425378    0.19561904772720454    0.19561945181873877    
  0.195137233083768    0.19462077922070556    0.19513716378448104    0.19561944346862442    0.1956190461448798    
  0.19514096481618162    0.194620542195377    0.21966494661597447    0.19514000009468344    0.17728087892704925    
  0.17073168676877967    0.17728584954284934    0.19513723580005002    0.21967214066499674    0.24183549261642873    
  0.2507358484569055    0.24183807692927267    0.21966494661597447    0.29590420208598645    0.24183920278822205    
  0.1956181513026746    0.1707374204106164    0.17073171523553513    0.19561951164523816    0.24183548461262952    
  0.29590116633043984    0.3333207999508253    0.33331238953851955    0.29590420208598645    0.41172820178989045    
  0.3333176074064046    0.2507322653628714    0.19561817055444838    0.17728088006481227    0.19561910278012964    
  0.25073583990904214    0.3333207738459261    0.4117227063168329    0.44433712173670814    0.41172820178989045    
  0.5221774769505193    0.44432970392078414    0.3333175964409602    0.2418392000045828    0.19513996329013653    
  0.1951410582769618    0.24183810786903054    0.3333123792044799    0.4443370992957705    0.5221756425970695    
  0.5221774769505193    0.5680037250255756    0.5221774162825846    0.4117280662096129    0.2959041174259379    
  0.21966495177115838    0.1946205686869226    0.21966492126833687    0.29590416159361804    0.41172809885487427    
  0.522177421280927    0.5680037250255756    0.4954084028605338    0.4863040659150876    0.43591806637917635    
  0.3455376996837774    0.27000627411240646    0.24315864137702284    0.27000620005283027    0.34553774707854307    
  0.43591813270974505    0.48630400341038993    0.4954084028605338    0.48630418584072793    0.48627889589800355    
  0.4547544264727707    0.37817662778932987    0.2925615505764399    0.24302586127940534    0.24302717057343376    
  0.29256130765921545    0.378175626917709    0.4547471763089486    0.48630418584072793    0.4359182044736472    
  0.45475440672260437    0.43594103586317157    0.378169796394654    0.30124400655111166    0.24285935532114575    
  0.22247017688667312    0.24285840136328796    0.30124353121803643    0.3781756328657811    0.4359182044736472    
  0.3455377617411326    0.37817665088515523    0.37816981158470375    0.34552886106631303    0.29256044355737115    
  0.24286179005696967    0.21503030095989953    0.21503384096555875    0.242858403997023    0.29256134987879645    
  0.3455377617411326    0.2700062732284672    0.29256154218320723    0.30124397966920147    0.29256041934451793    
  0.27001738946890286    0.24302566963923902    0.22246940337225699    0.21503029230439138    0.22247018423097958    
  0.2430271561430747    0.2700062732284672    0.24315864104498383    0.24302583140901476    0.24285926869720548    
  0.24286178325004373    0.24302560029504927    0.24314886040012462    0.24302555417166108    0.24286176130143713    
  0.24285931478776804    0.24302584359504786    0.24315864104498383    0.2700062862883026    0.24302717482411731    
  0.2224701766722232    0.21503024366026083    0.22246937400938818    0.24302565440947663    0.2700174489574439    
  0.2925603677049034    0.30124390386019767    0.29256153765299714    0.2700062862883026    0.3455377839753797    
  0.29256136189754595    0.24285839334860057    0.2150338723282487    0.21503028420985645    0.2428618270017148    
  0.29256038998165057    0.34552887362395485    0.3781698049916278    0.37817666161858426    0.3455377839753797    
  0.4359182481574818    0.3781756403846971    0.30124352197589294    0.24285839758907288    0.2224702111933717    
  0.24285937449458    0.3012439556546328    0.3781697846981784    0.4359410818006599    0.45475441861880944    
  0.4359182481574818    0.4863041406132998    0.4547471660153432    0.37817568876991103    0.2925613490694956    
  0.2430271449130164    0.2430259178074939    0.2925615677697737    0.3781766039103053    0.4547543496851703    
  0.4862789497110898    0.4863041406132998    0.4954084028605338    0.4863040659150876    0.43591806637917635    
  0.3455376996837774    0.27000627411240646    0.24315864137702284    0.27000620005283027    0.34553774707854307    
  0.43591813270974505    0.48630400341038993    0.4954084028605338    0.2734793602755033    0.32112350867295514    
  0.4010925244231148    0.3989666047404162    0.34155739155789444    0.3142575181509231    0.34155732921214604    
  0.39896663124833237    0.4010925493394584    0.3211234870861279    0.2734793602755033    0.32112360341421065    
  0.32100177448233563    0.38422520175612496    0.41028440060384685    0.3614397150950589    0.3131786199125073    
  0.3131989843953061    0.36142046400378125    0.41026906695102394    0.3842102156266381    0.32112360341421065    
  0.40109262836086    0.38422521404306653    0.4012360151917911    0.4102403991765513    0.36798142508005943    
  0.31200619172140553    0.2892097187213232    0.3120051952730482    0.36800982866030957    0.41026907289650344    
  0.40109262836086    0.39896668875204466    0.4102844105845041    0.41024044369770923    0.39889087480408425    
  0.36142478142503753    0.31204260559734354    0.2802968575796    0.2803059650037011    0.31200519339087335    
  0.3614205088470773    0.39896668875204466    0.34155739014050424    0.3614397095404626    0.36798140294869325    
  0.361424742133936    0.34163760368153057    0.31318757894383403    0.28917944570917203    0.2802968616282046    
  0.28920969663548707    0.3131989884399195    0.34155739014050424    0.31425751210493336    0.3131786119506356    
  0.3120060653149947    0.3120425966502552    0.3131875024659663    0.3141808947698397    0.31318744562291767    
  0.3120425857035795    0.3120061363728867    0.3131786263647617    0.31425751210493336    0.3415574238499797    
  0.31319901246254545    0.2892096930292993    0.28029681227712405    0.2891794147567662    0.31318759383036593    
  0.34163765019020664    0.36142469433173774    0.36798130847285054    0.3614397068694474    0.3415574238499797    
  0.398966708539251    0.3614205350290001    0.31200517277627315    0.2803059922898833    0.28029687382535373    
  0.3120426511476195    0.36142470359859435    0.39889092652341956    0.41024044144238236    0.4102844190468505    
  0.398966708539251    0.40109266427099804    0.4102690782288952    0.36800980494079566    0.31200520130493836    
  0.2892097156390251    0.3120062244996525    0.36798136371259205    0.41024041594104693    0.40123607412313755    
  0.3842252229141505    0.40109266427099804    0.32112357099546013    0.3842102291946829    0.4102691209349712    
  0.36142048089835915    0.3131989886793275    0.3131787166411104    0.3614397412188812    0.4102844054542627    
  0.3842251817770502    0.3210018185047967    0.32112357099546013    0.2734793602755033    0.32112350867295514    
  0.4010925244231148    0.3989666047404162    0.34155739155789444    0.3142575181509231    0.34155732921214604    
  0.39896663124833237    0.4010925493394584    0.3211234870861279    0.2734793602755033    0.09467953161617686    
  0.15171650614526966    0.31579407602645815    0.42719708226717074    0.406798549617036    0.38218767038198664    
  0.40679849945957774    0.4271970927982643    0.3157941248827129    0.15171650402100917    0.09467953161617686    
  0.15171653862488252    0.15156275244152786    0.2669996189689975    0.4048983601654618    0.41916502771988223    
  0.37980063756603444    0.3798542480914449    0.41911966845591303    0.4048441347666446    0.2669964045591467    
  0.15171653862488252    0.31579417164480594    0.2669996044893926    0.31605998539026914    0.40479889155381227    
  0.4205531930996832    0.37673824447229154    0.3534727195386237    0.37672870453140606    0.4206505689177287    
  0.40484416580143257    0.31579417164480594    0.42719713484725447    0.4048984259699429    0.4047988879484787    
  0.4270354235158787    0.4191098686643355    0.37685430686239163    0.34321036177726977    0.3432486221741026    
  0.376728664373104    0.4191197845817835    0.42719713484725447    0.4067985678751689    0.4191650617732513    
  0.42055313606734873    0.4191098271017563    0.4070015624615589    0.37982816849108936    0.3533764152615083    
  0.3432103548334252    0.3534727087386365    0.37985419253221275    0.4067985678751689    0.3821876554853644    
  0.3798006152228454    0.3767381536297088    0.37685423791896144    0.3798281308965241    0.38199089875343806    
  0.37982798913443666    0.37685425609197715    0.37673819493285693    0.3798005742577733    0.3821876554853644    
  0.4067985524868998    0.3798542419303632    0.35347273567466003    0.343210290912757    0.35337640259359215    
  0.37982811547308465    0.4070016780426813    0.4191098027890769    0.420553158683058    0.41916504201150023    
  0.4067985524868998    0.4271971756215963    0.4191197628943015    0.3767286468049874    0.3432486255471214    
  0.3432103402256223    0.3768543311900436    0.4191098297526609    0.4270353867360809    0.40479889947987907    
  0.4048984270175506    0.4271971756215963    0.3157941886193763    0.4048441756752247    0.42065054291434234    
  0.3767286964091379    0.3534727620038757    0.37673823608390844    0.42055313561024854    0.4047988474095969    
  0.3160600254699855    0.26699959520696454    0.3157941886193763    0.1517165115277154    0.26699638683267757    
  0.4048441569452182    0.4191197554725651    0.37985419301282486    0.3798006924297261    0.4191650699905189    
  0.40489839713238523    0.26699959269698836    0.1515627979416709    0.1517165115277154    0.09467953161617686    
  0.15171650614526966    0.31579407602645815    0.42719708226717074    0.406798549617036    0.38218767038198664    
  0.40679849945957774    0.4271970927982643    0.3157941248827129    0.15171650402100917    0.09467953161617686    
  0.049664196841430946    0.09784343831975095    0.2730901997146352    0.43232467482307946    0.433429933665086    
  0.41115921521364673    0.43342990382627744    0.43232470479503843    0.27309027809267916    0.09784343547689073    
  0.049664196841430946    0.09784347585234361    0.09772653052310205    0.2157642918830591    0.39333796707405155    
  0.44077682613222724    0.40800620776031515    0.4080714712599879    0.4407276557760291    0.3932466956225282    
  0.21579047950287455    0.09784347585234361    0.27309031054019195    0.2157642622348483    0.27336644169520685    
  0.39321924889353604    0.4388817255135366    0.4036689482421248    0.38107792747925695    0.4036471098691752    
  0.4390339197774758    0.39324672913059167    0.27309031054019195    0.432324749794401    0.39333799239338313    
  0.39321923780906876    0.432142842843002    0.4406999145596875    0.4038313924770944    0.37033147479152273    
  0.3703936221051164    0.4036471847261895    0.440727758500631    0.432324749794401    0.4334300006951041    
  0.44077688478427873    0.4388817125276552    0.44069985377826454    0.43367694236202015    0.4080410601488276    
  0.3809425122374469    0.37033151113153046    0.38107786834750323    0.40807141502973865    0.4334300006951041    
  0.4111591881373204    0.4080061857005144    0.4036688576610991    0.4038313363981873    0.40804100920621045    
  0.41091993685622275    0.4080408986942529    0.4038313529661205    0.4036688973505522    0.40800613332641594    
  0.4111591881373204    0.43342996082728574    0.40807143004059027    0.3810778999733337    0.37033147853389164    
  0.3809424938512213    0.40804099418846823    0.4336770339482063    0.44069980393555047    0.4388817026316426    
  0.440776822048671    0.43342996082728574    0.43232482624656793    0.4407277598639384    0.4036471449141159    
  0.3703936540114552    0.3703315193145402    0.40383138183457956    0.44069985764869246    0.4321428424133813    
  0.39321924283475096    0.39333799947069353    0.43232482624656793    0.2730902912182796    0.3932467316663419    
  0.43903387542257755    0.4036471580763437    0.38107791624038173    0.40366900092074587    0.43888170968422946    
  0.39321926477996444    0.27336647340468573    0.21576424058044472    0.2730902912182796    0.0978434456889393    
  0.21579049390370275    0.3932467184588312    0.4407277821729118    0.40807142331434515    0.40800622879865617    
  0.4407768105522214    0.39333800850669337    0.21576426808381502    0.0977265447507169    0.0978434456889393    
  0.049664196841430946    0.09784343831975095    0.2730901997146352    0.43232467482307946    0.433429933665086    
  0.41115921521364673    0.43342990382627744    0.43232470479503843    0.27309027809267916    0.09784343547689073    
  0.049664196841430946    
  END_DATAGRID_3D    
  END_BLOCK_DATAGRID_3D    