#     DFTpy    
  CRYSTAL 
    
  PRIMVEC    
  2.535931034482759    0.0    0.0    
  0.0    2.535931034482759    0.0    
  0.0    0.0    2.535931034482759    
  PRIMCOORD    
  2    1    
  Si    0.0    0.0    0.0    
  Si    1.2679655172413795    1.2679655172413795    1.2679655172413795    
  BEGIN_BLOCK_DATAGRID_3D    
  3d_datagrid_density    
  BEGIN_DATAGRID_3D#0    
  11    11    11    
  0.0    0.0    0.0    
  2.535931034482759    0.0    0.0    
  0.0    2.535931034482759    0.0    
  0.0    0.0    2.535931034482759    
  0.05506204549039403    0.11397589206945112    0.3293671167297665    0.5014870819169228    0.47571210191515223    
  0.43903318937453223    0.47571226092887203    0.5014871048893086    0.3293670800384899    0.11397588606330285    
  0.05506204549039403    0.11397591814678136    0.18756570279721288    0.39756276762035736    0.5230754901349206    
  0.48144099265337287    0.4449392257261695    0.4814409750026818    0.5230753815112276    0.39756269412614426    
  0.18756568727565595    0.11397591814678136    0.3293671006887503    0.39756268473757717    0.5228982073533206    
  0.5452816421445835    0.4855420424897557    0.4534417537838071    0.48554200780042267    0.5452816519739945    
  0.5228981542882851    0.39756276280324937    0.3293671006887503    0.5014871815515957    0.5230753348010505    
  0.545281629528397    0.5200839327364832    0.4743180932344586    0.4534424173172505    0.4743180429204175    
  0.5200839946085897    0.5452815688317815    0.5230754192467179    0.5014871815515957    0.47571234473898366    
  0.4814409807548097    0.4855420400376206    0.4743180594770324    0.45486300010500524    0.44493861651468014    
  0.45486299053132107    0.47431816160535156    0.4855420160958349    0.4814409071155223    0.47571234473898366    
  0.43903317628734767    0.44493923583605316    0.4534417075436389    0.4534424212763616    0.4449384966953104    
  0.4390338780677259    0.4449385288450283    0.4534424281383866    0.45344165323886493    0.4449392015868214    
  0.43903317628734767    0.47571230758201416    0.4814408993891106    0.4855420809053484    0.47431805284910844    
  0.45486300274920244    0.444938570016643    0.4548630009427194    0.47431806677812055    0.48554201999336655    
  0.48144091863150734    0.47571230758201416    0.5014872117391457    0.5230753763955459    0.5452815810588701    
  0.520083923398604    0.4743181195949206    0.4534424133288492    0.47431808836635586    0.5200838961361608    
  0.5452816039098309    0.5230754829678246    0.5014872117391457    0.32936708649534335    0.3975626573280845    
  0.5228982862147838    0.545281551898198    0.48554196904315045    0.4534417811899347    0.4855420294745817    
  0.5452816320242265    0.5228982239598797    0.39756273912026957    0.32936708649534335    0.1139759494043477    
  0.1875656942228796    0.3975627580797754    0.5230754335642923    0.481440944086866    0.4449392828012114    
  0.4814408844850202    0.5230754352156665    0.3975627100884122    0.1875656819050106    0.1139759494043477    
  0.05506204549039403    0.11397589206945112    0.3293671167297665    0.5014870819169228    0.47571210191515223    
  0.43903318937453223    0.47571226092887203    0.5014871048893086    0.3293670800384899    0.11397588606330285    
  0.05506204549039403    0.11397593463551994    0.18756570010071302    0.3975627505790008    0.5230754092277319    
  0.481440876291834    0.4449392912975815    0.48144100032264003    0.523075411770725    0.3975627518352595    
  0.18756566307752887    0.11397593463551994    0.18756573525001663    0.2671481119217318    0.45703520267297354    
  0.5418821696335313    0.49025256085086005    0.45486233740231946    0.4902526619774082    0.541882112516948    
  0.4570351040437531    0.26714812574037183    0.18756573525001663    0.3975627955529635    0.4570351050044188    
  0.5570462782616868    0.5630151551159485    0.5040118902471445    0.47431873957628173    0.5040118876778767    
  0.5630151114186263    0.5570463049135168    0.4570351767554205    0.3975627955529635    0.5230755036655089    
  0.5418820377027049    0.563015079269261    0.5436021947257536    0.5040125622335316    0.48554142366238595    
  0.5040124892187215    0.5436021241449144    0.5630151080143558    0.5418821502186717    0.5230755036655089    
  0.4814410983778984    0.49025267536806094    0.5040117686367387    0.5040126214552637    0.49025192947778856    
  0.48144173339823215    0.4902519108355276    0.5040125906106148    0.5040118138209987    0.490252563780437    
  0.4814410983778984    0.4449393868947797    0.4548622900680982    0.47431884721522755    0.48554130494179526    
  0.48144161139428143    0.4757115374558544    0.48144163581606825    0.48554140948470687    0.474318809694401    
  0.4548622238722592    0.4449393868947797    0.4814410495075187    0.4902525963591128    0.5040118456824549    
  0.5040126077533748    0.49025189319524476    0.481441707316416    0.4902518782767298    0.5040125533096622    
  0.5040118574977622    0.490252586505987    0.4814410495075187    0.5230755081458361    0.5418820920303076    
  0.5630150518519439    0.5436021904861719    0.5040125952807716    0.4855412931193922    0.5040125990325757    
  0.5436021663565169    0.5630150590035257    0.5418821022002306    0.5230755081458361    0.39756273414113424    
  0.4570351006979478    0.557046315652697    0.5630150665264138    0.5040119047727566    0.4743188541440488    
  0.5040118444721722    0.5630151039508177    0.5570462852383672    0.4570350864637414    0.39756273414113424    
  0.18756572993701415    0.2671481585309522    0.4570351633631399    0.5418820985423144    0.49025259713026315    
  0.45486243366735585    0.49025255700718706    0.5418822345647811    0.4570351486802284    0.26714812096210344    
  0.18756572993701415    0.11397593463551994    0.18756570010071302    0.3975627505790008    0.5230754092277319    
  0.481440876291834    0.4449392912975815    0.48144100032264003    0.523075411770725    0.3975627518352595    
  0.18756566307752887    0.11397593463551994    0.32936712806724927    0.39756268205566725    0.5228983099025563    
  0.5452816799853281    0.4855419266855674    0.4534416990102389    0.4855420113805406    0.5452816371648198    
  0.5228982846064725    0.3975626508757853    0.32936712806724927    0.3975628376693958    0.4570350932446931    
  0.5570463044428119    0.563015102829138    0.5040118505618613    0.4743188547804851    0.5040119005458883    
  0.5630150765507309    0.5570462841536608    0.4570351009849361    0.3975628376693958    0.5228983082700549    
  0.5570461546382814    0.6061227020176234    0.5932706081639167    0.5436028441755324    0.5200832977925904    
  0.5436029070560808    0.5932704770585194    0.6061227056889288    0.5570463283583209    0.5228983082700549    
  0.5452816678115268    0.5630150121255715    0.5932705220148001    0.5932711716721931    0.5630143116719493    
  0.5452824457959782    0.5630143289664001    0.5932712879566165    0.593270495460666    0.5630150619511588    
  0.5452816678115268    0.48554213361356463    0.5040118728831753    0.5436029493987506    0.5630143264534738    
  0.5418828047368308    0.5230747960067919    0.5418828582905478    0.5630143974052835    0.5436029114746286    
  0.5040118546090765    0.48554213361356463    0.45344174520048286    0.4743187405120468    0.5200832861788488    
  0.5452823680417829    0.523074676175715    0.5014879443485222    0.5230747347418494    0.54528244330292    
  0.520083192559654    0.47431872012514315    0.45344174520048286    0.48554214921264827    0.50401182886754    
  0.5436028553790264    0.5630143466378624    0.5418828100838522    0.5230747371768266    0.5418828420359566    
  0.5630143335769476    0.5436029156251675    0.5040118481896693    0.48554214921264827    0.5452816623730942    
  0.5630150965673097    0.5932705553737893    0.5932713621748499    0.5630144055257751    0.5452824379751392    
  0.5630143617858513    0.5932711803109485    0.5932705361467314    0.5630150893897999    0.5452816623730942    
  0.5228982723388776    0.5570461841493837    0.6061227705217616    0.5932705451256128    0.5436028194908715    
  0.5200833157986016    0.5436029471044541    0.5932705215768425    0.6061227420314549    0.5570462354488818    
  0.5228982723388776    0.3975628299067996    0.4570351227423997    0.5570462990974719    0.5630150977029154    
  0.5040118308116004    0.4743188556657624    0.5040117846847495    0.5630151551942703    0.5570463624286126    
  0.45703507037297536    0.3975628299067996    0.32936712806724927    0.39756268205566725    0.5228983099025563    
  0.5452816799853281    0.4855419266855674    0.4534416990102389    0.4855420113805406    0.5452816371648198    
  0.5228982846064725    0.3975626508757853    0.32936712806724927    0.5014872487949208    0.5230754547460266    
  0.5452815649804912    0.5200839962210562    0.47431803394992    0.45344247028326934    0.4743181197516763    
  0.5200840097380982    0.5452816423050559    0.5230753971534193    0.5014872487949208    0.5230755787389353    
  0.5418820615833161    0.5630151521843394    0.543602207916345    0.5040126294801551    0.4855413050585199    
  0.5040125899342353    0.5436021467352683    0.5630150315940144    0.5418820483686393    0.5230755787389353    
  0.5452816316051914    0.5630150599395585    0.5932704504244993    0.5932713989850587    0.563014313464722    
  0.5452823747419662    0.5630143666393216    0.5932712046575211    0.5932704735745862    0.5630151778691451    
  0.5452816316051914    0.5200839927185433    0.5436020799737106    0.5932713045936545    0.6061219106412684    
  0.5570469769463319    0.5228976141798557    0.5570470044275248    0.606121946113066    0.5932712507306337    
  0.5436021521790962    0.5200839927185433    0.47431817728132236    0.5040125432955606    0.5630143431299172    
  0.5570470094134443    0.4570344829711542    0.39756344140646216    0.45703450989348526    0.5570470294884804    
  0.5630143136826655    0.504012581356217    0.47431817728132236    0.453442515081595    0.48554122627839186    
  0.5452824087173966    0.5228975477710676    0.3975633283987719    0.3293665024475337    0.39756344335994337    
  0.5228975695736334    0.5452823574620849    0.4855412021400657    0.453442515081595    0.47431824689305724    
  0.5040125105743559    0.5630143236584394    0.5570469583170755    0.45703443091327384    0.3975633891263071    
  0.4570343870796855    0.5570470483888191    0.5630143670783188    0.5040125909946659    0.47431824689305724    
  0.5200839673062003    0.5436021735455308    0.5932713046793965    0.6061220773806669    0.557047082625095    
  0.5228975766320958    0.5570470731052024    0.6061219319450322    0.5932713246635978    0.5436022218284333    
  0.5200839673062003    0.5452815879297984    0.5630150583067935    0.5932705714100424    0.5932713145803019    
  0.563014239607619    0.545282420407841    0.5630143947296083    0.5932712862900095    0.5932705180887066    
  0.5630150678257074    0.5452815879297984    0.5230754831441619    0.5418821051480807    0.5630151242430131    
  0.5436021531555949    0.5040125449583589    0.4855413393334828    0.5040125009128684    0.5436021600647916    
  0.563015131832107    0.5418820131675496    0.5230754831441619    0.5014872487949208    0.5230754547460266    
  0.5452815649804912    0.5200839962210562    0.47431803394992    0.45344247028326934    0.4743181197516763    
  0.5200840097380982    0.5452816423050559    0.5230753971534193    0.5014872487949208    0.47571230459398023    
  0.48144093374475067    0.4855420607944901    0.4743180690821602    0.454862946239354    0.44493859879491054    
  0.4548630491762421    0.4743180547098049    0.48554206740386296    0.48144089020697656    0.47571230459398023    
  0.4814410218975409    0.4902526386221955    0.5040118236481079    0.5040126280317133    0.49025186300902485    
  0.48144168869730264    0.49025191366821136    0.5040125950543962    0.5040118794837827    0.4902526388091161    
  0.4814410218975409    0.48554206009913864    0.5040117890356401    0.5436028573521939    0.5630144384251984    
  0.5418829547574583    0.5230746796405239    0.5418828527044202    0.5630143128902184    0.5436029753590753    
  0.5040119024242894    0.48554206009913864    0.4743181627008404    0.5040125208955601    0.5630143481209253    
  0.5570469598161829    0.45703448370196653    0.3975634394323382    0.45703436802534264    0.5570470377286111    
  0.5630142927343652    0.5040125207919838    0.4743181627008404    0.45486310024510807    0.49025194696035984    
  0.541882830636432    0.45703446559617256    0.26714870571567373    0.18756522806747472    0.26714869704187405    
  0.45703449184034217    0.5418828570812169    0.49025181310831933    0.45486310024510807    0.4449386646260866    
  0.48144167327876697    0.5230747107893704    0.39756342016349727    0.18756517552007107    0.11397636809015628    
  0.18756516848897758    0.3975634621190642    0.5230747004105233    0.48144159006416315    0.4449386646260866    
  0.4548631129256742    0.4902518798172489    0.5418828489303913    0.4570344691831629    0.26714869116163    
  0.18756519123348675    0.2671486944996819    0.4570344789663382    0.5418828535237984    0.49025190502715754    
  0.4548631129256742    0.4743181581460446    0.504012510990792    0.5630143489308025    0.5570470368230543    
  0.4570345000134314    0.3975634104215303    0.4570344640730773    0.5570469712909601    0.5630143354880377    
  0.5040125752438726    0.4743181581460446    0.485542070489189    0.5040117950524267    0.5436028895461392    
  0.56301432146433    0.5418828676809607    0.5230747306310641    0.5418828412438055    0.5630143401343056    
  0.5436029079666915    0.5040117981915828    0.485542070489189    0.48144102392616317    0.49025269192259346    
  0.5040118454012947    0.5040125871929979    0.4902518686374258    0.48144178390275055    0.49025182491912683    
  0.5040127009348787    0.5040118689938661    0.4902526037195179    0.48144102392616317    0.47571230459398023    
  0.48144093374475067    0.4855420607944901    0.4743180690821602    0.454862946239354    0.44493859879491054    
  0.4548630491762421    0.4743180547098049    0.48554206740386296    0.48144089020697656    0.47571230459398023    
  0.43903317737084097    0.44493923930690016    0.45344171546369133    0.4534423245084821    0.4449384407950318    
  0.4390339175059209    0.4449385832661801    0.45344236208941113    0.45344167005526487    0.44493919975751667    
  0.43903317737084097    0.4449392913659447    0.4548622942734986    0.4743188728765295    0.4855413492372443    
  0.48144169964322436    0.4757114840451014    0.4814416998946073    0.4855412724666508    0.47431877128067723    
  0.45486229308445286    0.4449392913659447    0.4534417056265065    0.4743187722942155    0.5200831678799174    
  0.5452823814840703    0.5230747137500856    0.5014879300107139    0.5230746729357344    0.5452824061895303    
  0.5200831393029162    0.4743188565160694    0.4534417056265065    0.4534424144832422    0.48554120555716723    
  0.5452823891858091    0.5228975020835155    0.39756337326120955    0.32936648780724376    0.3975633524542956    
  0.5228975524055002    0.5452823201289573    0.4855412800692254    0.4534424144832422    0.4449386803844342    
  0.48144173448789024    0.523074695767067    0.39756333714594055    0.18756517611175968    0.11397636003834627    
  0.18756516195344897    0.3975634460423896    0.523074690760178    0.48144164142848483    0.4449386803844342    
  0.4390338829034418    0.47571144354965084    0.501487931337931    0.3293664669290031    0.11397632089265876    
  0.05506169716397962    0.1139763356258949    0.32936647387803675    0.5014878688771782    0.4757114181741802    
  0.4390338829034418    0.4449386489877282    0.4814416277615811    0.5230747426552992    0.397563361356909    
  0.18756517828355757    0.11397633786566823    0.18756516717878927    0.39756337943440845    0.5230746979656792    
  0.4814416487653279    0.4449386489877282    0.45344245547912915    0.48554124514071734    0.545282339648528    
  0.5228974718013126    0.39756339923196576    0.32936645252777014    0.3975633953234346    0.5228974338562726    
  0.5452823636901055    0.4855413368703921    0.45344245547912915    0.4534416914115625    0.474318729434561    
  0.5200832545599907    0.545282340536723    0.5230746322431998    0.5014880327884977    0.523074667268118    
  0.5452823992580887    0.5200831890837151    0.4743188377064149    0.4534416914115625    0.4449393773413241    
  0.4548622775050651    0.4743188639439819    0.4855412912293773    0.4814416823952174    0.4757114929166112    
  0.4814416178796902    0.48554128630286686    0.47431880253335934    0.4548622617995186    0.4449393773413241    
  0.43903317737084097    0.44493923930690016    0.45344171546369133    0.4534423245084821    0.4449384407950318    
  0.4390339175059209    0.4449385832661801    0.45344236208941113    0.45344167005526487    0.44493919975751667    
  0.43903317737084097    0.47571229569399187    0.4814409356883663    0.48554207321718945    0.4743180511596205    
  0.45486297166767076    0.4449385856868213    0.45486309017388843    0.4743180715897877    0.48554209330024606    
  0.48144084276906346    0.47571229569399187    0.48144099656056444    0.4902526631335384    0.5040118564431539    
  0.5040126552521382    0.4902518543391901    0.4814416989951284    0.49025189317174683    0.5040126080354542    
  0.5040117801273692    0.49025265321862094    0.48144099656056444    0.48554211312343876    0.5040117597552761    
  0.5436029257659928    0.5630143824814882    0.5418828732791553    0.5230746335543609    0.5418829037747376    
  0.5630143434630037    0.5436029364830026    0.5040118696743626    0.48554211312343876    0.47431815455849274    
  0.5040125331174334    0.563014317704588    0.5570470753977886    0.4570344460067937    0.39756347661620484    
  0.45703434650773717    0.5570469958250566    0.5630143476455998    0.5040126369051422    0.47431815455849274    
  0.45486317981460644    0.49025193650052357    0.5418828092977024    0.4570345133523264    0.2671487108226925    
  0.1875652225091181    0.26714870404889324    0.4570344861498947    0.5418828265373721    0.4902518240536937    
  0.45486317981460644    0.4449386581292944    0.4814416503363441    0.5230747038185087    0.3975633943040802    
  0.18756517077914645    0.11397636828207866    0.18756515463700935    0.3975635102748264    0.5230746782790786    
  0.4814415715500907    0.4449386581292944    0.4548631221638145    0.49025186708510177    0.5418828613584702    
  0.4570344775658005    0.2671486904885131    0.1875651954573313    0.2671486816276947    0.45703443664656107    
  0.5418828450463123    0.49025186267264453    0.4548631221638145    0.4743181487533498    0.5040125707941697    
  0.5630142908744316    0.5570470865859246    0.4570344716491384    0.39756339531449686    0.45703445477095    
  0.5570470437661194    0.5630142856907622    0.5040125945212794    0.4743181487533498    0.485542069946711    
  0.5040117955254517    0.5436029600879215    0.5630142801160364    0.5418829219068577    0.5230747128380485    
  0.5418828818283161    0.5630143139260962    0.5436029141542785    0.5040117583070836    0.485542069946711    
  0.4814410042338377    0.49025270558542855    0.5040118336946673    0.5040125978440976    0.49025184169435315    
  0.48144179115486874    0.4902518091768222    0.5040127015972554    0.5040118397945691    0.4902526601971278    
  0.4814410042338377    0.47571229569399187    0.4814409356883663    0.48554207321718945    0.4743180511596205    
  0.45486297166767076    0.4449385856868213    0.45486309017388843    0.4743180715897877    0.48554209330024606    
  0.48144084276906346    0.47571229569399187    0.5014872256226169    0.5230754027985723    0.5452816262594483    
  0.5200840547999447    0.4743179919816804    0.45344244190390265    0.47431807101211343    0.520084009455716    
  0.5452816086903116    0.5230753771525477    0.5014872256226169    0.5230756133167476    0.5418820114026611    
  0.5630151496030574    0.5436021554819552    0.5040125691052452    0.48554135774055984    0.5040126432747282    
  0.5436021342626451    0.5630151602176353    0.5418820255648814    0.5230756133167476    0.5452816580748052    
  0.5630150022245967    0.5932704557108299    0.5932713642225081    0.5630143038819276    0.5452824198894802    
  0.5630143661330865    0.5932712727332085    0.5932704625819712    0.5630151721695007    0.5452816580748052    
  0.5200840321879372    0.5436020575120097    0.5932713011046784    0.6061218869631769    0.5570470051212183    
  0.5228975830982415    0.5570470392477721    0.6061219639834811    0.5932712842785968    0.5436021082838843    
  0.5200840321879372    0.47431818829126504    0.5040126233590175    0.5630143361115776    0.5570470087393498    
  0.45703440743635526    0.397563481160755    0.45703446669689396    0.5570470893290861    0.5630143559829908    
  0.5040126025497763    0.47431818829126504    0.45344248750111626    0.4855412396325337    0.5452824661935806    
  0.5228975067755718    0.39756337402093184    0.3293664653901931    0.39756346126566283    0.5228975604935324    
  0.5452823671090472    0.4855411969279631    0.45344248750111626    0.4743181992239819    0.5040125423639172    
  0.5630143011489062    0.5570470530691065    0.4570344021393886    0.39756342228915487    0.4570344373283964    
  0.5570470219360861    0.5630143366338946    0.5040125933698323    0.4743181992239819    0.5200840195853822    
  0.543602119789608    0.5932713051964983    0.6061220494969329    0.5570470904611501    0.5228975800554031    
  0.5570470684585865    0.6061218783459272    0.5932712934937767    0.5436021414193476    0.5200840195853822    
  0.5452816357881912    0.5630150338141092    0.5932705031412674    0.5932713252978243    0.563014249192046    
  0.54528248906679    0.5630143367757287    0.5932713103332063    0.5932704858643354    0.5630150738602895    
  0.5452816357881912    0.5230756031982869    0.5418820394694907    0.5630151472701391    0.5436021354676975    
  0.504012574813424    0.48554134056969306    0.5040125360729918    0.5436022080526164    0.5630152166539428    
  0.5418819937161473    0.5230756031982869    0.5014872256226169    0.5230754027985723    0.5452816262594483    
  0.5200840547999447    0.4743179919816804    0.45344244190390265    0.47431807101211343    0.520084009455716    
  0.5452816086903116    0.5230753771525477    0.5014872256226169    0.32936715883234535    0.3975627075024969    
  0.5228982301579359    0.5452816390919781    0.48554196210150774    0.45344173305369384    0.4855420668766091    
  0.5452816384966216    0.5228983049843946    0.39756266535912305    0.32936715883234535    0.39756281471413196    
  0.45703512920286316    0.5570463140304664    0.5630151477727295    0.5040119112987794    0.4743187853676914    
  0.504011839984689    0.5630150894507894    0.5570462073096645    0.45703512456844336    0.39756281471413196    
  0.522898284841367    0.5570462335641779    0.6061226855818868    0.5932706366554618    0.54360285485691    
  0.5200832484702452    0.5436029374234576    0.5932704311323126    0.6061227034048118    0.5570463752851827    
  0.522898284841367    0.5452816174775341    0.5630150186919382    0.5932705195157245    0.5932712208764568    
  0.563014307404901    0.5452824479465489    0.5630143173010121    0.5932712572431234    0.5932704826374434    
  0.5630150987176542    0.5452816174775341    0.4855421221097531    0.5040118117489824    0.5436028975992843    
  0.5630143161299923    0.5418828848701545    0.5230747598898481    0.541882920793701    0.5630143212261459    
  0.5436028840293632    0.5040118539920402    0.4855421221097531    0.4534418038884688    0.4743187294439538    
  0.5200832439117888    0.5452823981796632    0.5230746246051419    0.5014879536854987    0.5230747510316309    
  0.5452824332369516    0.5200832085858647    0.4743187260452343    0.4534418038884688    0.4855421605697148    
  0.5040117984394984    0.543602887472944    0.5630142706273035    0.541882791496591    0.5230746681771123    
  0.541882805670125    0.5630143606028729    0.543602931819043    0.5040118615905662    0.4855421605697148    
  0.5452815937400856    0.56301510050406    0.5932705402644987    0.5932713820690616    0.5630143543637717    
  0.5452824099234441    0.563014368761061    0.5932712512879358    0.593270539582671    0.5630151771592379    
  0.5452815937400856    0.5228982440967782    0.557046221664784    0.6061228158137867    0.5932705232403161    
  0.5436028294186921    0.520083289154395    0.5436029681395343    0.5932705043964247    0.6061227561705756    
  0.5570462381632557    0.5228982440967782    0.39756275845985084    0.45703517541227023    0.5570462874651324    
  0.5630151094319229    0.5040117950707341    0.47431885554714065    0.5040117684296143    0.5630150927835234    
  0.5570462868801125    0.45703510126973895    0.39756275845985084    0.32936715883234535    0.3975627075024969    
  0.5228982301579359    0.5452816390919781    0.48554196210150774    0.45344173305369384    0.4855420668766091    
  0.5452816384966216    0.5228983049843946    0.39756266535912305    0.32936715883234535    0.11397592242286886    
  0.18756569940250978    0.39756272698141415    0.5230754074034353    0.48144085917315893    0.44493929407241367    
  0.48144095839680473    0.523075430918826    0.397562738205072    0.18756567685349446    0.11397592242286886    
  0.18756574012761065    0.26714811257362703    0.4570351610498143    0.541882143980013    0.4902526139135562    
  0.45486232885325445    0.4902526510821211    0.5418820957155579    0.45703520186369545    0.2671481178523419    
  0.18756574012761065    0.3975627447840903    0.45703511194499774    0.5570462361311025    0.5630152009349224    
  0.5040119387211828    0.47431877217035434    0.5040118522283761    0.563015068849331    0.5570463162321748    
  0.4570352234235457    0.3975627447840903    0.5230755129058297    0.5418820456071642    0.5630150916130252    
  0.5436020890447057    0.5040126106647513    0.48554138003134134    0.5040125091923415    0.5436021675097816    
  0.5630150697747455    0.5418820498113737    0.5230755129058297    0.4814410442277642    0.4902526652609387    
  0.5040118038023029    0.5040125818523338    0.49025194023600577    0.4814417414911197    0.4902519079007528    
  0.5040126349861949    0.5040118255151522    0.4902525511050438    0.4814410442277642    0.4449393894081279    
  0.4548623195499649    0.47431882877344617    0.48554132875926936    0.48144164701949177    0.4757115146492279    
  0.4814416372029948    0.4855413646885417    0.4743188406541369    0.45486222265575366    0.4449393894081279    
  0.4814410326111385    0.4902526228138866    0.5040118008952255    0.5040125949693905    0.4902518927998654    
  0.4814416998073049    0.4902518528772544    0.5040126088244993    0.5040118617009148    0.49025267477788054    
  0.4814410326111385    0.5230755036528835    0.5418820385378241    0.5630151430455795    0.5436021589523402    
  0.5040126425396404    0.4855413193184979    0.5040126010460816    0.5436020962352942    0.5630150908976133    
  0.5418820982837709    0.5230755036528835    0.39756274190417634    0.4570351236935344    0.5570462305273135    
  0.5630151287576877    0.5040118512367163    0.4743188620115061    0.5040118066856986    0.5630151258789459    
  0.5570462408239298    0.45703513374545457    0.39756274190417634    0.1875657418159001    0.26714813269015764    
  0.4570351715968142    0.5418821165363891    0.4902526059235361    0.4548624212663484    0.49025258775255887    
  0.5418822231704331    0.45703520768901423    0.26714809564287895    0.1875657418159001    0.11397592242286886    
  0.18756569940250978    0.39756272698141415    0.5230754074034353    0.48144085917315893    0.44493929407241367    
  0.48144095839680473    0.523075430918826    0.397562738205072    0.18756567685349446    0.11397592242286886    
  0.05506204549039403    0.11397589206945112    0.3293671167297665    0.5014870819169228    0.47571210191515223    
  0.43903318937453223    0.47571226092887203    0.5014871048893086    0.3293670800384899    0.11397588606330285    
  0.05506204549039403    0.11397591814678136    0.18756570279721288    0.39756276762035736    0.5230754901349206    
  0.48144099265337287    0.4449392257261695    0.4814409750026818    0.5230753815112276    0.39756269412614426    
  0.18756568727565595    0.11397591814678136    0.3293671006887503    0.39756268473757717    0.5228982073533206    
  0.5452816421445835    0.4855420424897557    0.4534417537838071    0.48554200780042267    0.5452816519739945    
  0.5228981542882851    0.39756276280324937    0.3293671006887503    0.5014871815515957    0.5230753348010505    
  0.545281629528397    0.5200839327364832    0.4743180932344586    0.4534424173172505    0.4743180429204175    
  0.5200839946085897    0.5452815688317815    0.5230754192467179    0.5014871815515957    0.47571234473898366    
  0.4814409807548097    0.4855420400376206    0.4743180594770324    0.45486300010500524    0.44493861651468014    
  0.45486299053132107    0.47431816160535156    0.4855420160958349    0.4814409071155223    0.47571234473898366    
  0.43903317628734767    0.44493923583605316    0.4534417075436389    0.4534424212763616    0.4449384966953104    
  0.4390338780677259    0.4449385288450283    0.4534424281383866    0.45344165323886493    0.4449392015868214    
  0.43903317628734767    0.47571230758201416    0.4814408993891106    0.4855420809053484    0.47431805284910844    
  0.45486300274920244    0.444938570016643    0.4548630009427194    0.47431806677812055    0.48554201999336655    
  0.48144091863150734    0.47571230758201416    0.5014872117391457    0.5230753763955459    0.5452815810588701    
  0.520083923398604    0.4743181195949206    0.4534424133288492    0.47431808836635586    0.5200838961361608    
  0.5452816039098309    0.5230754829678246    0.5014872117391457    0.32936708649534335    0.3975626573280845    
  0.5228982862147838    0.545281551898198    0.48554196904315045    0.4534417811899347    0.4855420294745817    
  0.5452816320242265    0.5228982239598797    0.39756273912026957    0.32936708649534335    0.1139759494043477    
  0.1875656942228796    0.3975627580797754    0.5230754335642923    0.481440944086866    0.4449392828012114    
  0.4814408844850202    0.5230754352156665    0.3975627100884122    0.1875656819050106    0.1139759494043477    
  0.05506204549039403    0.11397589206945112    0.3293671167297665    0.5014870819169228    0.47571210191515223    
  0.43903318937453223    0.47571226092887203    0.5014871048893086    0.3293670800384899    0.11397588606330285    
  0.05506204549039403    
  END_DATAGRID_3D    
  END_BLOCK_DATAGRID_3D    