#     DFTpy    
  CRYSTAL 
    
  PRIMVEC    
  1.1024352531695254    -1.9094738705446763    0.0    
  1.1024352531695254    1.9094738705446763    0.0    
  0.0    0.0    2.0751395557241374    
  PRIMCOORD    
  1    1    
  Si    0.0    0.0    0.0    
  BEGIN_BLOCK_DATAGRID_3D    
  3d_datagrid_density    
  BEGIN_DATAGRID_3D#0    
  11    11    9    
  0.0    0.0    0.0    
  1.1024352531695254    -1.9094738705446763    0.0    
  1.1024352531695254    1.9094738705446763    0.0    
  0.0    0.0    2.0751395557241374    
  0.05130534997781847    0.09195697296370989    0.25596178341270964    0.4887113483985191    0.5988252590190263    
  0.6116450391831749    0.5988252842058034    0.4887113279938171    0.2559617749457926    0.09195697776477797    
  0.05130534997781847    0.09195696493803712    0.09199619254810458    0.19794597900010696    0.41197773020910317    
  0.571245428620158    0.6059807893846558    0.6059679670029638    0.5712687401823674    0.41192152946615057    
  0.19799385430464644    0.09195696493803712    0.255961748959588    0.19794603214542925    0.2559391038214992    
  0.4119532454788807    0.55476460948359    0.5959771806574308    0.5939780702228156    0.5959624188739135    
  0.5548165929333361    0.4119215258921411    0.255961748959588    0.48871132771328596    0.41197778329433976    
  0.41195324751607443    0.4887551012278102    0.5712426677943369    0.5960075570117518    0.5856335725341697    
  0.5856465205953867    0.5959623195906708    0.5712687274767823    0.48871132771328596    0.5988253001173347    
  0.5712454966955194    0.5547646672013183    0.5712426537313677    0.598788773505122    0.6059872643678782    
  0.5939369605866276    0.5856335445774611    0.5939780347235696    0.6059678530363324    0.5988253001173347    
  0.6116449693212831    0.6059808618059491    0.5959771931098723    0.5960075252216919    0.6059872577142544    
  0.6116609447021446    0.6059873129199992    0.5960075682723546    0.5959771619246961    0.6059808127484961    
  0.6116449693212831    0.5988251886135821    0.6059679440929325    0.593978024228735    0.5856335290974675    
  0.5939367928109717    0.6059872502127921    0.5987887831924911    0.5712426504298942    0.5547647569580387    
  0.571245424372156    0.5988251886135821    0.4887113926423828    0.5712687659316839    0.5959623852008097    
  0.585646448948695    0.5856334869468038    0.596007546763957    0.571242710987885    0.48875513037690865    
  0.41195317157034567    0.4119777264681531    0.4887113926423828    0.2559617695733759    0.41192154101535    
  0.5548165773694861    0.5959623191996029    0.5939779869267972    0.595977131609498    0.554764731642521    
  0.41195326970976126    0.2559390835494199    0.19794600788925365    0.2559617695733759    0.09195695621023524    
  0.19799393699725815    0.41192148539349077    0.5712687492036701    0.6059679383315706    0.6059808489557769    
  0.5712454921256219    0.4119777637702288    0.19794599756457745    0.09199616699314121    0.09195695621023524    
  0.05130534997781847    0.09195697296370989    0.25596178341270964    0.4887113483985191    0.5988252590190263    
  0.6116450391831749    0.5988252842058034    0.4887113279938171    0.2559617749457926    0.09195697776477797    
  0.05130534997781847    0.11508680175535847    0.16659790949134315    0.32790363040556386    0.5022774682557771    
  0.5615515908036851    0.5616087039676946    0.5615516085892291    0.5022775275661764    0.3279036073706669    
  0.1665979046988712    0.11508680175535847    0.16659786885009462    0.1666068182087816    0.2760099166972728    
  0.4497613831393328    0.548657008229766    0.5573446137955647    0.5573476283499985    0.548662766846727    
  0.4497246779842609    0.2760404381540629    0.16659786885009462    0.327903620693665    0.27600997285387696    
  0.3279208308162545    0.4497368390192123    0.538989687895562    0.5498348776281989    0.5412426272881531    
  0.5498244158658091    0.539028774250174    0.44972462871740543    0.327903620693665    0.5022774771640457    
  0.44976137603081295    0.4497368158042373    0.5022786970664473    0.548649239580758    0.5498619672896492    
  0.532452761961445    0.5324643631856687    0.5498243680461167    0.5486627969930197    0.5022774771640457    
  0.561551527012773    0.5486571663761224    0.5389897819506666    0.5486492559093059    0.5615622342568625    
  0.5573550636828095    0.5412092574596884    0.5324526974809544    0.5412425978369689    0.5573475389826249    
  0.561551527012773    0.5616087097856945    0.5573446481401565    0.5498349144985814    0.5498619751028512    
  0.5573550914623245    0.5615828147100048    0.5573551374214795    0.5498619802335377    0.5498348768316422    
  0.5573446675056191    0.5616087097856945    0.561551491365495    0.5573476048366627    0.5412426079546844    
  0.5324526799193501    0.5412091721941883    0.5573550199166923    0.561562314124273    0.54864928552729    
  0.5389898280456094    0.5486569938222213    0.561551491365495    0.5022775398585602    0.5486627777131439    
  0.549824350704217    0.5324643581673718    0.5324526312783611    0.5498619860015296    0.5486493635570191    
  0.5022786825098978    0.44973685174572536    0.4497613251212308    0.5022775398585602    0.3279036047297418    
  0.4497246745209891    0.5390287954917112    0.5498243673862334    0.5412425762697004    0.5498349033962019    
  0.5389897737511787    0.449736905107363    0.3279207508164122    0.2760099281780425    0.3279036047297418    
  0.1665978955526371    0.27604050914011297    0.44972463675240343    0.5486627741258098    0.557347553571238    
  0.5573446869567286    0.5486570356265699    0.4497613709260221    0.2760099692419933    0.16660676254607887    
  0.1665978955526371    0.11508680175535847    0.16659790949134315    0.32790363040556386    0.5022774682557771    
  0.5615515908036851    0.5616087039676946    0.5615516085892291    0.5022775275661764    0.3279036073706669    
  0.1665979046988712    0.11508680175535847    0.38190290973613    0.41863258687919813    0.4864907298211603    
  0.5045636377094505    0.4713818285673945    0.45050971511007737    0.4713817987923807    0.5045636747228208    
  0.4864906959051294    0.418632584901505    0.38190290973613    0.41863255331095983    0.4186098900778859    
  0.47017019140731686    0.5054105270257264    0.4837836945385941    0.44911350589830906    0.4491155802506741    
  0.4837838240714412    0.5054028554718756    0.4701732072119241    0.41863255331095983    0.4864906222378235    
  0.4701702948560421    0.4865196159142783    0.5053981276759952    0.48656573112085644    0.44654027173256844    
  0.4274784737869429    0.4465389742207757    0.48657161282035977    0.5054028508297062    0.4864906222378235    
  0.5045636406440097    0.5054105763099922    0.5053980895436613    0.5045503967134379    0.48378091801555323    
  0.4465480276191167    0.41851498492322364    0.41851824181954894    0.44653886695015343    0.483783830893271    
  0.5045636406440097    0.47138177453186664    0.4837837719481959    0.48656577408294055    0.483780895368556    
  0.4714001424719456    0.44911622472709306    0.4274707210492705    0.418514944480379    0.4274784722307864    
  0.44911551792356796    0.47138177453186664    0.4505096921998656    0.4491136035922874    0.44654025101428324    
  0.44654804965524975    0.4491162231019894    0.4504888304858052    0.44911625451321535    0.44654805530282604    
  0.44654026092457255    0.4491135600067295    0.4505096921998656    0.4713817362716347    0.44911559283897723    
  0.4274784483533809    0.4185149590195193    0.4274705748197222    0.4491162248846093    0.4714001947864541    
  0.48378089521121387    0.4865658056700178    0.4837836973552573    0.4713817362716347    0.5045636617779832    
  0.4837838141771914    0.44653891493795356    0.41851818490550136    0.4185149318490492    0.4465480230941593    
  0.48378091994035993    0.5045504185196215    0.5053980197887147    0.5054105305857477    0.5045636617779832    
  0.48649068061185574    0.5054029262338965    0.4865716294449841    0.44653890751345676    0.42747844697490806    
  0.4465402237481342    0.4865658601929563    0.5053981104303289    0.48651960634073266    0.47017021812400617    
  0.48649068061185574    0.41863255184537895    0.47017340428756893    0.5054028173070686    0.4837838623704672    
  0.4491155280411022    0.44911360320795796    0.4837837453323718    0.505410598390122    0.4701702310248705    
  0.4186098169134778    0.41863255184537895    0.38190290973613    0.41863258687919813    0.4864907298211603    
  0.5045636377094505    0.4713818285673945    0.45050971511007737    0.4713817987923807    0.5045636747228208    
  0.4864906959051294    0.418632584901505    0.38190290973613    0.6814416286873398    0.6543052233849205    
  0.5739931415203054    0.4682586471528096    0.3856167403851938    0.3556352541990108    0.3856167319543256    
  0.46825868741161236    0.5739931242831217    0.6543051961018747    0.6814416286873398    0.6543051184330879    
  0.6543111166584176    0.5996987036625361    0.5044087603247908    0.410249104819383    0.35548339513888927    
  0.3554826440681967    0.41025010601360173    0.5044075357690233    0.599700984502129    0.6543051184330879    
  0.5739931217025066    0.5996987790569867    0.5739893518392394    0.5044105361101967    0.4195079636386735    
  0.35507631325972366    0.3317577826490554    0.3550747834360791    0.41951015271013614    0.5044075084524569    
  0.5739931217025066    0.46825869928432085    0.5044087491518059    0.5044105177684653    0.4682586509309655    
  0.4102491522142779    0.3550770574119453    0.3228078633054218    0.3228123872117944    0.3550747224631163    
  0.41025014739698795    0.46825869928432085    0.3856167042699392    0.41024921082787635    0.41950802394500414    
  0.41024915482943514    0.3856176705641468    0.35548037341149874    0.3317604963289905    0.32280781925946295    
  0.33175774197210234    0.3554825859240492    0.3856167042699392    0.35563527353174657    0.35548341376980624    
  0.35507634418939443    0.3550770545159351    0.35548038079340044    0.3556389722900839    0.35548042737428176    
  0.3550770651838632    0.35507631638661047    0.3554834270952979    0.35563527353174657    0.3856166447530331    
  0.3554826680804763    0.33175774962258753    0.32280781618295157    0.3317604383687693    0.3554803475078622    
  0.3856177271083233    0.4102492137913634    0.41950808445260585    0.4102490895143502    0.3856166447530331    
  0.46825871866839097    0.41025009859203754    0.3550747341294226    0.32281237095621274    0.32280776307924103    
  0.3550770801195393    0.41024926240990267    0.4682586959427635    0.5044105164712228    0.5044087149418233    
  0.46825871866839097    0.5739930908928512    0.5044075491529125    0.419510165513119    0.3550747479387431    
  0.3317577307540146    0.35507635962495854    0.4195080394627955    0.5044105636023887    0.5739893145832647    
  0.5996986840517113    0.5739930908928512    0.6543051942324669    0.5997010593622372    0.5044075271177947    
  0.41025012469893996    0.355482597691175    0.3554834516048119    0.4102491684955705    0.5044088040640357    
  0.5996987390286305    0.6543110128421765    0.6543051942324669    0.6814416286873398    0.6543052233849205    
  0.5739931415203054    0.4682586471528096    0.3856167403851938    0.3556352541990108    0.3856167319543256    
  0.46825868741161236    0.5739931242831217    0.6543051961018747    0.6814416286873398    0.7669810838234898    
  0.7131941106409714    0.582432486082817    0.44461901620505584    0.35244615080765423    0.3213711097747502    
  0.3524461564215296    0.44461897873218814    0.582432446102962    0.713194092135161    0.7669810838234898    
  0.7131940860971335    0.7132085253735443    0.6210275969661966    0.48892333236982466    0.3789673106345694    
  0.3211884446955199    0.32119016990318244    0.37896648489283785    0.4889215721410982    0.6210312461260676    
  0.7131940860971335    0.5824323943464931    0.6210276653600657    0.5824233125028665    0.4889230535430861    
  0.38930139099904587    0.32077242559289043    0.29707752734434173    0.32077131928571867    0.38930384940137014    
  0.48892156463161435    0.5824323943464931    0.4446189812731608    0.48892338439010163    0.4889230533139171    
  0.44462536594614605    0.37896911019855506    0.3207691231944491    0.2880442654146035    0.2880421113186064    
  0.3207712627914617    0.3789664732800784    0.4446189812731608    0.35244616879235785    0.3789673527377829    
  0.3893014507551418    0.3789690990304427    0.3524370008471083    0.3211912096527413    0.29707700554236327    
  0.2880442496258491    0.2970774905714586    0.3211901023280347    0.35244616879235785    0.32137107159384015    
  0.32118849824545675    0.32077244046666925    0.32076910440617246    0.321191204952917    0.32137555605165485    
  0.32119124130282345    0.32076912709704664    0.32077242084934066    0.3211884607452269    0.32137107159384015    
  0.35244607439837344    0.32119015411510576    0.29707748973369125    0.2880442463104085    0.2970768903397847    
  0.32119119501109983    0.3524370130124844    0.37896910714008053    0.3893014985765883    0.378967304858576    
  0.35244607439837344    0.44461904740748637    0.37896648810156136    0.3207712945258908    0.28804206778441077    
  0.28804421215759696    0.3207691209253108    0.37896914805546217    0.4446254117474267    0.48892298085642244    
  0.4889233152748747    0.44461904740748637    0.5824324273379983    0.4889215688595311    0.3893038436496607    
  0.32077125757419916    0.2970774622625819    0.32077240254590556    0.3893015062906876    0.48892308666987544    
  0.5824232717777285    0.621027620624132    0.5824324273379983    0.7131940648684724    0.6210314145488233    
  0.48892152184389365    0.37896649034434704    0.3211901450468606    0.32118850013910116    0.37896736195432046    
  0.48892337220379495    0.6210275991754004    0.7132084276836741    0.7131940648684724    0.7669810838234898    
  0.7131941106409714    0.582432486082817    0.44461901620505584    0.35244615080765423    0.3213711097747502    
  0.3524461564215296    0.44461897873218814    0.582432446102962    0.713194092135161    0.7669810838234898    
  0.6814416466439095    0.6543051979881513    0.5739931403475481    0.4682586607565155    0.38561675342135343    
  0.3556352764094087    0.3856167659747464    0.4682587058876798    0.5739930949743017    0.6543051743771078    
  0.6814416466439095    0.6543051127052877    0.6543111263606192    0.5996986640792584    0.5044087786209879    
  0.41024909864370024    0.35548338631536736    0.3554826539086662    0.4102501146631233    0.5044075882085899    
  0.5997009887065623    0.6543051127052877    0.5739931078057485    0.5996987607121214    0.5739893759630589    
  0.5044105309440737    0.41950794144395603    0.35507634335960236    0.33175777750429014    0.35507475840048464    
  0.41951015987773377    0.504407519559833    0.5739931078057485    0.4682586778120022    0.5044087833538534    
  0.504410493397344    0.46825868412541255    0.41024915261956646    0.35507705632582126    0.32280786392332006    
  0.3228123871257938    0.35507472825045333    0.4102501478562122    0.4682586778120022    0.38561671358661836    
  0.4102492324271701    0.41950802908327667    0.4102491689289474    0.3856176428078538    0.35548036212784273    
  0.331760502609994    0.32280782653468665    0.33175775600287444    0.35548258360781976    0.38561671358661836    
  0.35563529215651024    0.3554834169916026    0.35507637557211713    0.35507706371186865    0.355480391600204    
  0.35563899755936135    0.3554804108462008    0.3550770656186972    0.35507634139361677    0.3554834332675585    
  0.35563529215651024    0.38561666448403004    0.3554826338684093    0.3317577742276084    0.322807821888372    
  0.3317604303583615    0.35548032917380523    0.38561771950185614    0.41024920653576186    0.4195080438276757    
  0.41024907511791003    0.38561666448403004    0.46825871743093894    0.4102501378485142    0.355074717253292    
  0.32281238901527504    0.3228077745180416    0.35507706976460723    0.4102492755440216    0.46825869155748295    
  0.5044105334730613    0.5044087221512146    0.46825871743093894    0.5739930852894563    0.5044075613320559    
  0.4195101674729387    0.3550747327312441    0.33175774953784015    0.35507637045672924    0.41950803315636503    
  0.5044106078675991    0.5739892736451766    0.5996986971979786    0.5739930852894563    0.6543051627418008    
  0.5997010793282969    0.5044075435591456    0.41025012908130837    0.3554825982416861    0.3554834499412323    
  0.41024912800487423    0.504408790056162    0.5996987657022314    0.654310994160992    0.6543051627418008    
  0.6814416466439095    0.6543051979881513    0.5739931403475481    0.4682586607565155    0.38561675342135343    
  0.3556352764094087    0.3856167659747464    0.4682587058876798    0.5739930949743017    0.6543051743771078    
  0.6814416466439095    0.3819029109574006    0.41863258943347237    0.4864907303530846    0.5045636313089865    
  0.47138182308552795    0.4505097148405856    0.47138180434955673    0.5045636773088009    0.4864906932927923    
  0.41863258037787043    0.3819029109574006    0.41863255789700643    0.4186098975364169    0.47017019814836186    
  0.505410529858421    0.4837836889446328    0.44911350972598196    0.44911557296594773    0.4837838309633658    
  0.505402844191317    0.4701732159248937    0.41863255789700643    0.48649063185371444    0.4701703004659322    
  0.48651961625523743    0.5053981078203033    0.4865657346280142    0.4465402696368351    0.4274784652070875    
  0.44653896667395254    0.48657162115753283    0.5054028605791572    0.48649063185371444    0.5045636479617546    
  0.5054105721672043    0.5053980857548489    0.5045503884241263    0.48378091936084316    0.446548028048629    
  0.4185149737241806    0.41851823601264876    0.44653887630907557    0.48378382230863115    0.5045636479617546    
  0.4713817750636974    0.4837837847842218    0.48656577164821213    0.48378088439072847    0.4714001431717264    
  0.4491162208771093    0.4274707174477487    0.4185149417518861    0.42747845933183815    0.4491155116970552    
  0.4713817750636974    0.4505096926008187    0.4491136092605518    0.446540245638449    0.4465480558247644    
  0.44911622561677167    0.4504888330837513    0.44911624769169495    0.4465480533475676    0.446540260221442    
  0.4491135604297794    0.4505096926008187    0.47138174233812885    0.4491155758871541    0.42747846287030966    
  0.41851496687508916    0.4274705827632668    0.44911621842570915    0.47140020877086636    0.483780878110335    
  0.48656581771821755    0.48378368226790447    0.47138174233812885    0.5045636540741681    0.48378381544717236    
  0.4465389165009509    0.41851819546235963    0.41851493371482024    0.44654802326325493    0.4837809096322471    
  0.5045504211027447    0.5053980112168939    0.5054105175072601    0.5045636540741681    0.48649066617120695    
  0.5054029192219475    0.4865716124158309    0.4465389087427622    0.42747845834074344    0.4465402069264635    
  0.4865658557238377    0.5053981082233672    0.4865195981014374    0.4701702072824726    0.48649066617120695    
  0.41863254715523773    0.4701733942539624    0.5054028147030576    0.4837838637574343    0.4491155304105535    
  0.4491136011252065    0.48378374242095323    0.5054105946783464    0.4701702312174208    0.4186098190195234    
  0.41863254715523773    0.3819029109574006    0.41863258943347237    0.4864907303530846    0.5045636313089865    
  0.47138182308552795    0.4505097148405856    0.47138180434955673    0.5045636773088009    0.4864906932927923    
  0.41863258037787043    0.3819029109574006    0.1150867973287384    0.16659791376931235    0.3279036390674187    
  0.5022774694522943    0.5615515747043448    0.561608678930394    0.5615515782124533    0.5022774935905943    
  0.32790362963241104    0.1665979048198695    0.1150867973287384    0.16659786906920585    0.16660681968530403    
  0.27600993446739575    0.4497613523785032    0.5486570239434598    0.557344618796403    0.557347618625271    
  0.5486627399912566    0.4497246432597172    0.2760404331251108    0.16659786906920585    0.32790363387893284    
  0.27600997988177783    0.32792080485918695    0.4497368496021657    0.5389897071656968    0.5498348555372236    
  0.5412426195656416    0.5498244357442736    0.5390287813708771    0.4497246242537822    0.32790363387893284    
  0.5022775315614845    0.4497613573262953    0.4497368359635356    0.5022786371787901    0.5486492377954415    
  0.5498619630959839    0.5324527275330069    0.5324643522884829    0.5498243619909965    0.548662798108344    
  0.5022775315614845    0.5615515334220172    0.5486571541258156    0.5389897811786077    0.5486492296926435    
  0.5615622626125639    0.5573550885272921    0.5412092510599232    0.532452674552652    0.541242567866909    
  0.5573475190158563    0.5615515334220172    0.5616086924091076    0.5573446515327236    0.5498348808825243    
  0.5498619708073048    0.5573550900738253    0.5615827759381596    0.5573551453280629    0.5498619915568579    
  0.5498348484424512    0.5573446620693595    0.5616086924091076    0.5615514617807362    0.5573476343931772    
  0.5412425883838027    0.5324526898470618    0.5412091588828016    0.5573550422427662    0.5615623300031517    
  0.5486493070726184    0.5389898530258662    0.5486570200555885    0.5615514617807362    0.5022775402868788    
  0.5486627607905631    0.549824381573358    0.5324643393914014    0.5324526292205864    0.5498619888701229    
  0.5486493665324268    0.5022786890651828    0.44973684184954443    0.4497612980701968    0.5022775402868788    
  0.32790361008744406    0.4497246484453747    0.5390288077697609    0.5498244016278419    0.5412425643117263    
  0.5498349032824803    0.5389897929464535    0.4497368725370829    0.32792077193442565    0.27600992649851647    
  0.32790361008744406    0.1665979027976156    0.27604048527944164    0.4497246355386782    0.5486627825710666    
  0.5573475613303732    0.5573446944953694    0.5486570915479796    0.4497613938123971    0.2760099528811941    
  0.16660677304732852    0.1665979027976156    0.1150867973287384    0.16659791376931235    0.3279036390674187    
  0.5022774694522943    0.5615515747043448    0.561608678930394    0.5615515782124533    0.5022774935905943    
  0.32790362963241104    0.1665979048198695    0.1150867973287384    0.05130534997781847    0.09195697296370989    
  0.25596178341270964    0.4887113483985191    0.5988252590190263    0.6116450391831749    0.5988252842058034    
  0.4887113279938171    0.2559617749457926    0.09195697776477797    0.05130534997781847    0.09195696493803712    
  0.09199619254810458    0.19794597900010696    0.41197773020910317    0.571245428620158    0.6059807893846558    
  0.6059679670029638    0.5712687401823674    0.41192152946615057    0.19799385430464644    0.09195696493803712    
  0.255961748959588    0.19794603214542925    0.2559391038214992    0.4119532454788807    0.55476460948359    
  0.5959771806574308    0.5939780702228156    0.5959624188739135    0.5548165929333361    0.4119215258921411    
  0.255961748959588    0.48871132771328596    0.41197778329433976    0.41195324751607443    0.4887551012278102    
  0.5712426677943369    0.5960075570117518    0.5856335725341697    0.5856465205953867    0.5959623195906708    
  0.5712687274767823    0.48871132771328596    0.5988253001173347    0.5712454966955194    0.5547646672013183    
  0.5712426537313677    0.598788773505122    0.6059872643678782    0.5939369605866276    0.5856335445774611    
  0.5939780347235696    0.6059678530363324    0.5988253001173347    0.6116449693212831    0.6059808618059491    
  0.5959771931098723    0.5960075252216919    0.6059872577142544    0.6116609447021446    0.6059873129199992    
  0.5960075682723546    0.5959771619246961    0.6059808127484961    0.6116449693212831    0.5988251886135821    
  0.6059679440929325    0.593978024228735    0.5856335290974675    0.5939367928109717    0.6059872502127921    
  0.5987887831924911    0.5712426504298942    0.5547647569580387    0.571245424372156    0.5988251886135821    
  0.4887113926423828    0.5712687659316839    0.5959623852008097    0.585646448948695    0.5856334869468038    
  0.596007546763957    0.571242710987885    0.48875513037690865    0.41195317157034567    0.4119777264681531    
  0.4887113926423828    0.2559617695733759    0.41192154101535    0.5548165773694861    0.5959623191996029    
  0.5939779869267972    0.595977131609498    0.554764731642521    0.41195326970976126    0.2559390835494199    
  0.19794600788925365    0.2559617695733759    0.09195695621023524    0.19799393699725815    0.41192148539349077    
  0.5712687492036701    0.6059679383315706    0.6059808489557769    0.5712454921256219    0.4119777637702288    
  0.19794599756457745    0.09199616699314121    0.09195695621023524    0.05130534997781847    0.09195697296370989    
  0.25596178341270964    0.4887113483985191    0.5988252590190263    0.6116450391831749    0.5988252842058034    
  0.4887113279938171    0.2559617749457926    0.09195697776477797    0.05130534997781847    
  END_DATAGRID_3D    
  END_BLOCK_DATAGRID_3D    