#     DFTpy    
  CRYSTAL 
    
  PRIMVEC    
  1.0753261895669963    -1.8625195950394795    0.0    
  1.0753261895669963    1.8625195950394795    0.0    
  0.0    0.0    2.024111533862069    
  PRIMCOORD    
  1    1    
  Si    0.0    0.0    0.0    
  BEGIN_BLOCK_DATAGRID_3D    
  3d_datagrid_density    
  BEGIN_DATAGRID_3D#0    
  11    11    9    
  0.0    0.0    0.0    
  1.0753261895669963    -1.8625195950394795    0.0    
  1.0753261895669963    1.8625195950394795    0.0    
  0.0    0.0    2.024111533862069    
  0.0526153800150603    0.09257781661964594    0.255774494037759    0.502599289465151    0.6394170623087884    
  0.6635436685122547    0.6394170300390717    0.5025993022857809    0.2557744923338236    0.09257783832472748    
  0.0526153800150603    0.09257785365336355    0.09261636024342543    0.19746873102481247    0.41831549836437293    
  0.6018972637887122    0.6560579655392387    0.6560402732630525    0.6019267673087115    0.41828448685664693    
  0.19749979931666128    0.09257785365336355    0.25577450453239503    0.19746875442598563    0.2557304324696329    
  0.4183125753732119    0.5815921160876075    0.6438004057782089    0.6493188349814237    0.643782000199252    
  0.5816087811482727    0.4182844695433987    0.25577450453239503    0.5025993381440249    0.4183154825887901    
  0.41831252349917525    0.5026563012523328    0.6018975576406407    0.6437972524802522    0.6429421364119297    
  0.6429678554005588    0.6437821009505926    0.6019267630323619    0.5025993381440249    0.6394170353223112    
  0.6018972777759194    0.5815920867039776    0.6018976062922597    0.6393709479367298    0.6560563849951234    
  0.6493188706122008    0.6429421753733164    0.6493189095198671    0.6560402564622396    0.6394170353223112    
  0.6635437843689896    0.6560578419130507    0.6438004000384057    0.643797288501686    0.6560564238943796    
  0.6635788403234687    0.6560563547673618    0.6437972734998948    0.6438004575011392    0.6560580163361238    
  0.6635437843689896    0.6394170283599347    0.6560402107212399    0.6493187973792167    0.6429422750040532    
  0.6493189060061624    0.656056387255426    0.6393708923340988    0.6018975657649017    0.5815921306085735    
  0.6018971733272208    0.6394170283599347    0.5025992765266892    0.6019267703435417    0.6437820419023074    
  0.6429680008794805    0.6429421657166458    0.6437972736523977    0.6018975378312221    0.5026562195849936    
  0.41831255499196823    0.4183154590197363    0.5025992765266892    0.25577455622462775    0.4182844569683783    
  0.5816087367428132    0.6437820968097955    0.6493188991575551    0.6438004187534904    0.5815920339384107    
  0.418312530286497    0.25573044052035626    0.19746875357184504    0.25577455622462775    0.09257785358456948    
  0.19749980468379766    0.418284483486509    0.6019267565006207    0.6560402571739452    0.6560579038909217    
  0.6018973570484957    0.4183154839554307    0.197468808770609    0.09261636830191855    0.09257785358456948    
  0.0526153800150603    0.09257781661964594    0.255774494037759    0.502599289465151    0.6394170623087884    
  0.6635436685122547    0.6394170300390717    0.5025993022857809    0.2557744923338236    0.09257783832472748    
  0.0526153800150603    0.11518769566774685    0.1658938944975895    0.32919642654931214    0.5210419612280689    
  0.6031925835379907    0.6116940917008676    0.6031925113303284    0.5210420109033415    0.32919640817925777    
  0.1658939100973904    0.11518769566774685    0.16589392641640488    0.16590484789106014    0.27580713534467627    
  0.46078395936801064    0.5828001063656054    0.6064920583089889    0.6064894263386685    0.5828086307280586    
  0.4607673208044577    0.27581970187840005    0.16589392641640488    0.3291963971860541    0.2758071849093127    
  0.3291888635367164    0.46077384735161625    0.5703811557992641    0.5978801737537239    0.5945104599314986    
  0.597871544702536    0.5703952910493234    0.46076730789603554    0.3291963971860541    0.5210420037738429    
  0.4607839600372932    0.46077381581903254    0.5210635563223055    0.5827947222465809    0.5978931413379008    
  0.5870798864097355    0.5870996671590362    0.5978716389038872    0.5828085851896405    0.5210420037738429    
  0.6031926040643147    0.5828001134511622    0.570381155925149    0.5827946797899948    0.6031851809129679    
  0.606490553948981    0.5945035661186961    0.5870798864801258    0.5945106292732553    0.6064893794081175    
  0.6031926040643147    0.6116940993645534    0.6064919055070387    0.5978801413820629    0.5978930949370959    
  0.606490491003918    0.611702680404286    0.606490471231207    0.5978931308463161    0.5978801810739595    
  0.6064919897331776    0.6116940993645534    0.6031925806893229    0.6064893444007593    0.5945105038531343    
  0.5870800077035042    0.5945034799307526    0.6064905249436977    0.6031851643959548    0.5827946898784058    
  0.5703811245762599    0.582800076708945    0.6031925806893229    0.5210419942726991    0.582808577821221    
  0.5978716153582426    0.5870996785715074    0.5870798641705735    0.597893151671943    0.5827946697383081    
  0.5210634440890317    0.4607738361726465    0.46078395703806996    0.5210419942726991    0.32919646348262677    
  0.4607672935791005    0.5703952787131688    0.5978716406771961    0.5945105254460971    0.5978801382744555    
  0.5703811013137592    0.46077382871163464    0.32918888012202835    0.2758071366042178    0.32919646348262677    
  0.1658939456207196    0.2758197262628352    0.4607673606869267    0.5828086177933397    0.6064893719244749    
  0.6064919315924523    0.5828001658220555    0.4607839806378366    0.27580719845354396    0.16590483791913835    
  0.1658939456207196    0.11518769566774685    0.1658938944975895    0.32919642654931214    0.5210419612280689    
  0.6031925835379907    0.6116940917008676    0.6031925113303284    0.5210420109033415    0.32919640817925777    
  0.1658939100973904    0.11518769566774685    0.3814541696206229    0.4206452386183103    0.4999266856451584    
  0.5363353123362009    0.5153659160051015    0.49777259545963604    0.5153658676638685    0.5363352938445676    
  0.4999267062446187    0.42064531087665136    0.3814541696206229    0.42064534032267215    0.42063515634067583    
  0.4795481011922604    0.5311490943141418    0.52452908635951    0.49594010642352476    0.49594425565558464    
  0.5245272105716899    0.5311465767180767    0.47954920324809247    0.42064534032267215    0.49992671280809803    
  0.47954818245771824    0.4999377496534795    0.5311488588532034    0.5260817574877037    0.49273415867322956    
  0.4749185878507425    0.4927297949095386    0.5260893767297843    0.5311465504452328    0.49992671280809803    
  0.5363353728677798    0.5311490306768035    0.5311488350059703    0.5363253520062343    0.5245248452847329    
  0.49273910928720843    0.46571971952383007    0.4657293013859305    0.49272989856476557    0.5245271797174581    
  0.5363353728677798    0.5153659072819451    0.5245291823629091    0.5260817342642222    0.5245249105929769    
  0.515380920365882    0.495939741346899    0.47491826638461426    0.46571975929961806    0.4749186457344067    
  0.495944257223483    0.5153659072819451    0.49777270014870745    0.49593997315685223    0.4927341272865289    
  0.49273919024292073    0.495939706214593    0.4977628527894329    0.4959397104894065    0.49273911918209967    
  0.49273413485576817    0.4959400593452657    0.49777270014870745    0.5153659124167869    0.49594423844160723    
  0.47491855559822416    0.4657198600849985    0.47491821958673713    0.4959396819960009    0.515380820246486    
  0.524524866382178    0.5260817862810305    0.5245290711502882    0.5153659124167869    0.5363352931235221    
  0.5245271538756625    0.49272988968049725    0.46572943866800953    0.46571978037260914    0.49273914345959235    
  0.5245248397870352    0.53632528472635    0.5311488603702229    0.531149006986896    0.5363352931235221    
  0.49992676603869446    0.5311465540459647    0.5260892795644976    0.49272993523398684    0.4749186058916544    
  0.4927341304686837    0.526081689923876    0.5311488415374073    0.49993778109996106    0.4795481609674236    
  0.49992676603869446    0.420645324402387    0.4795492537904384    0.5311465463451958    0.5245272040958205    
  0.4959442216291136    0.49593995946355834    0.524529181908251    0.531149069563933    0.4795482181963278    
  0.42063515458903117    0.420645324402387    0.3814541696206229    0.4206452386183103    0.4999266856451584    
  0.5363353123362009    0.5153659160051015    0.49777259545963604    0.5153658676638685    0.5363352938445676    
  0.4999267062446187    0.42064531087665136    0.3814541696206229    0.7048378699837646    0.6811819505884046    
  0.6097656825984374    0.5109817058463919    0.42982387398056077    0.399651286324162    0.4298238996654085    
  0.5109817002282048    0.609765644918286    0.6811820495465687    0.7048378699837646    0.6811820779477878    
  0.6811720105049647    0.6328703184434413    0.5451660937781562    0.45394612692496694    0.39901357266677745    
  0.39901470706552267    0.4539434723273543    0.5451684389620751    0.6328672588777695    0.6811820779477878    
  0.6097656406673628    0.632870343424591    0.6097709549883212    0.5451685026670402    0.4626665830904159    
  0.3977198043648808    0.37382608840044457    0.39772142637644636    0.4626668538667176    0.545168425847126    
  0.6097656406673628    0.5109817475099181    0.5451661284394412    0.5451684661710887    0.5109777933332698    
  0.4539417304749592    0.3977247175926994    0.36407622947732    0.36407671705629463    0.39772147409921255    
  0.45394343983689284    0.5109817475099181    0.4298239203598409    0.45394612241558463    0.4626666009701562    
  0.4539416759740043    0.429830508181099    0.3990137211296747    0.3738237231449935    0.3640762301371523    
  0.3738262195323514    0.399014683660818    0.4298239203598409    0.39965133458565605    0.3990134340283442    
  0.39771977577948353    0.3977246844651849    0.39901368805624776    0.39964675082439055    0.39901365018014884    
  0.3977247028242563    0.39771980955081154    0.39901352796432843    0.39965133458565605    0.4298238941220523    
  0.3990146491509979    0.3738261437698133    0.3640763147512527    0.3738236613621026    0.39901371778078104    
  0.42983052053693965    0.4539416884053649    0.46266656811754964    0.45394609814633835    0.4298238941220523    
  0.5109817269256687    0.4539434554375383    0.3977214478649807    0.36407675512576737    0.3640762269415082    
  0.39772471225222095    0.45394166690444987    0.5109777034327251    0.5451684682775526    0.5451660725010464    
  0.5109817269256687    0.609765683488832    0.5451684465102583    0.46266686113882427    0.39772143586408876    
  0.3738261418751407    0.3977197754245018    0.4626665665023173    0.5451684833112624    0.6097709523511585    
  0.6328703643579098    0.609765683488832    0.6811820463768049    0.63286736952714    0.5451684671667276    
  0.45394348680547913    0.39901468984403426    0.3990134956942701    0.453946205577944    0.5451660978819854    
  0.6328703710472935    0.6811720551613059    0.6811820463768049    0.7048378699837646    0.6811819505884046    
  0.6097656825984374    0.5109817058463919    0.42982387398056077    0.399651286324162    0.4298238996654085    
  0.5109817002282048    0.609765644918286    0.6811820495465687    0.7048378699837646    0.8088351013871369    
  0.7560778393642704    0.6278528125150059    0.4903066029796229    0.39583755437791907    0.3635069318966482    
  0.39583753655336845    0.4903065918766435    0.6278528109602958    0.7560779542803597    0.8088351013871369    
  0.7560779471442042    0.7560681537824204    0.6656948660894411    0.5344852473451012    0.42267820491398295    
  0.36293123100642216    0.3629328045526601    0.42267394750829623    0.5344841837101268    0.6656955368418674    
  0.7560779471442042    0.6278528269128301    0.6656949104870653    0.6278632463150677    0.5344813703827624    
  0.43265729862508073    0.3617637156381433    0.33725800281852997    0.3617674420041509    0.43266023643930007    
  0.534484156089079    0.6278528269128301    0.4903066397365445    0.5344852202014522    0.5344813100217454    
  0.4903028122703594    0.42267894196582706    0.36176684824069055    0.3276475310895865    0.3276381211082082    
  0.36176751114437067    0.4226739116364961    0.4903066397365445    0.3958375477274636    0.4226782523055316    
  0.4326572583413274    0.4226789551680452    0.3958349843799594    0.36293507726980306    0.33724986175965216    
  0.327647588866773    0.3372580756961481    0.36293281424603674    0.3958375477274636    0.3635070200843127    
  0.36293112728309906    0.36176371775036503    0.36176687750642955    0.3629351141307858    0.36350374519464257    
  0.3629350750653082    0.361766850922567    0.3617637379991164    0.3629312632125196    0.3635070200843127    
  0.3958375494769177    0.3629327709404087    0.3372580001212078    0.3276476370285667    0.33724987955326835    
  0.36293508561040194    0.3958349322178335    0.4226789386596333    0.4326572974621363    0.42267814394177633    
  0.3958375494769177    0.4903065794468313    0.4226739598581969    0.36176745421291323    0.3276382313715255    
  0.3276475503868465    0.36176686919580753    0.42267889590586527    0.4903027255305903    0.5344813495917443    
  0.5344851937114119    0.4903065794468313    0.6278529069340636    0.5344841462932141    0.432660206580248    
  0.3617674966533956    0.33725806537429504    0.36176373665501793    0.4326572124291565    0.5344813428621487    
  0.6278632524991905    0.6656949277089843    0.6278529069340636    0.7560779588593328    0.665695554541247    
  0.5344841816671912    0.4226739357588151    0.3629327956491875    0.36293116870772324    0.42267828257536066    
  0.534485206576124    0.6656950221231348    0.7560681490383507    0.7560779588593328    0.8088351013871369    
  0.7560778393642704    0.6278528125150059    0.4903066029796229    0.39583755437791907    0.3635069318966482    
  0.39583753655336845    0.4903065918766435    0.6278528109602958    0.7560779542803597    0.8088351013871369    
  0.7048378794104052    0.6811819819682505    0.6097656866351623    0.5109817010371329    0.42982391205370946    
  0.39965130972254426    0.42982384931335677    0.510981738785736    0.6097656748186403    0.681182037802717    
  0.7048378794104052    0.6811820471275576    0.6811720575973972    0.6328703050493166    0.5451661004612357    
  0.4539461406893135    0.39901357518050407    0.39901470517286347    0.45394348123116    0.5451684349660824    
  0.6328672749236431    0.6811820471275576    0.6097656356901637    0.6328703651455769    0.6097709972423109    
  0.5451685033857139    0.46266662131787534    0.3977198240391479    0.3738260520284677    0.39772139949789365    
  0.4626668699908008    0.545168413091087    0.6097656356901637    0.5109817379727355    0.5451661060493016    
  0.545168474467576    0.5109778028261815    0.45394174698143597    0.3977247025033484    0.3640762415310246    
  0.3640767373162853    0.3977214699601829    0.4539434136497288    0.5109817379727355    0.429823941792919    
  0.45394613003636236    0.46266661517166185    0.453941680378815    0.4298305110782638    0.3990137286433282    
  0.3738237249860428    0.3640762413399697    0.37382621991131443    0.3990146745584237    0.429823941792919    
  0.3996513066706517    0.3990134612168735    0.39771979269917684    0.3977246747071596    0.3990136856577478    
  0.3996467112338676    0.39901366509370556    0.39772469366208546    0.3977198204816679    0.3990135113788537    
  0.3996513066706517    0.42982390950384325    0.3990146459140655    0.3738261208394137    0.3640763329313786    
  0.37382364461179773    0.3990137157450283    0.42983050710546383    0.45394169439431087    0.46266659540419103    
  0.4539460925286372    0.42982390950384325    0.5109817312526512    0.45394343929376607    0.3977214550739885    
  0.36407674585483    0.3640762205559124    0.3977247230489608    0.4539416819707113    0.5109776614040118    
  0.5451684884289233    0.5451660858761682    0.5109817312526512    0.6097657412946791    0.5451684183440352    
  0.4626668636989751    0.397721465274948    0.3738261285150193    0.39771979274375824    0.46266656023827    
  0.5451684795592079    0.6097709817440882    0.632870346061555    0.6097657412946791    0.6811820631394427    
  0.6328673528541766    0.5451684981510585    0.45394346735839647    0.39901466031034005    0.3990134674893713    
  0.453946178677572    0.5451661069329886    0.632870390191848    0.6811720579235249    0.6811820631394427    
  0.7048378794104052    0.6811819819682505    0.6097656866351623    0.5109817010371329    0.42982391205370946    
  0.39965130972254426    0.42982384931335677    0.510981738785736    0.6097656748186403    0.681182037802717    
  0.7048378794104052    0.3814541671184672    0.4206452298043115    0.4999266828675784    0.5363353097893092    
  0.5153659189586467    0.49777257860234575    0.5153658615644773    0.5363352976393363    0.4999267044407548    
  0.4206452996542607    0.3814541671184672    0.4206453353179077    0.42063516101579607    0.4795481181648532    
  0.5311490781953824    0.5245290966682415    0.49594010370525665    0.49594426743076864    0.524527216605344    
  0.5311465727973532    0.4795491926846842    0.4206453353179077    0.4999267229042699    0.479548194219209    
  0.49993775147395453    0.5311488509420449    0.5260817654834558    0.4927341446298911    0.4749185927054218    
  0.4927297996119673    0.5260893841407972    0.531146540126745    0.4999267229042699    0.5363353879408996    
  0.5311490441140359    0.5311488459096849    0.5363253568054297    0.5245248663086857    0.49273910860845466    
  0.46571971447398125    0.4657293178062427    0.4927298983403362    0.5245271862951407    0.5363353879408996    
  0.5153659124153804    0.5245291824765564    0.5260817350733589    0.5245249144143409    0.5153809298127008    
  0.49593974618118675    0.47491826565898515    0.46571976795015413    0.4749186390683735    0.49594425004746046    
  0.5153659124153804    0.4977727050955624    0.495939988069414    0.4927341214729568    0.49273918564791214    
  0.4959397116554953    0.49776285917539603    0.49593969411599154    0.4927391182125593    0.4927341261425919    
  0.4959400590001254    0.4977727050955624    0.515365913383964    0.4959442285511963    0.47491856233581786    
  0.4657198694086149    0.47491823235067177    0.4959396726592052    0.5153808136825716    0.524524851901505    
  0.5260817863486745    0.5245290659478575    0.515365913383964    0.5363352890515425    0.5245271437243253    
  0.4927298845970774    0.4657294393527571    0.46571978703520306    0.492739139083342    0.524524854293505    
  0.5363252809005362    0.5311488575953155    0.5311490220535291    0.5363352890515425    0.4999267649024008    
  0.5311465515527016    0.5260892837348873    0.49272995025830185    0.47491860412496156    0.492734130697095    
  0.5260816912052184    0.5311488402770003    0.4999377788631188    0.4795481490161051    0.4999267649024008    
  0.4206453158814676    0.47954925326556247    0.531146547908027    0.5245272160945549    0.4959442188190337    
  0.4959399734242801    0.5245291763768821    0.5311490710537132    0.4795482060532571    0.4206351621299231    
  0.4206453158814676    0.3814541671184672    0.4206452298043115    0.4999266828675784    0.5363353097893092    
  0.5153659189586467    0.49777257860234575    0.5153658615644773    0.5363352976393363    0.4999267044407548    
  0.4206452996542607    0.3814541671184672    0.1151876943670875    0.16589389594843781    0.3291964105078042    
  0.5210419685651551    0.6031925432010394    0.6116940604945612    0.6031925530869972    0.5210419616856812    
  0.32919637872029045    0.1658939143434659    0.1151876943670875    0.16589393455191637    0.1659048259393498    
  0.2758071592573138    0.4607839754000539    0.5828001328387178    0.6064920812021843    0.606489412055961    
  0.5828086256316832    0.46076731316476915    0.2758196885308188    0.16589393455191637    0.3291964036145029    
  0.2758071694956027    0.3291888490144114    0.4607738512272198    0.57038112515038    0.5978801317991551    
  0.5945104939969814    0.597871571160613    0.5703952697972813    0.4607673148532129    0.3291964036145029    
  0.5210420116654471    0.46078400650852014    0.4607738226840985    0.5210635372740967    0.5827947385499861    
  0.5978931498234742    0.5870798649163187    0.5870996494235621    0.5978716346273918    0.5828086063123088    
  0.5210420116654471    0.6031925806124953    0.5828000778442542    0.5703811428663448    0.582794686859617    
  0.6031851662957785    0.6064905369904877    0.5945035683485088    0.5870798586296818    0.5945106293638125    
  0.606489378714113    0.6031925806124953    0.611694107911989    0.6064918892214166    0.5978801195663696    
  0.5978931101923392    0.606490488133236    0.6117027215659315    0.6064904267773036    0.5978931364874444    
  0.5978801615791501    0.6064920024097005    0.611694107911989    0.6031925355639355    0.6064893493697833    
  0.5945105094295966    0.587079981819934    0.5945034898855106    0.6064905268757484    0.6031851639536006    
  0.5827946879055239    0.570381124283048    0.5828000748866908    0.6031925355639355    0.5210419944540331    
  0.5828085731751249    0.5978715922978464    0.5870996777477961    0.5870798756262868    0.5978931501083307    
  0.5827946501365159    0.5210634694782577    0.4607738150148156    0.46078395716796805    0.5210419944540331    
  0.3291964298273911    0.4607673069182713    0.5703952811143621    0.5978715822989858    0.5945105510961538    
  0.5978801013899606    0.5703811078833726    0.4607738250711624    0.3291888581494675    0.2758071604544885    
  0.3291964298273911    0.16589393831824772    0.2758197400822613    0.46076733899501315    0.5828086362177722    
  0.6064894079976253    0.6064919831849194    0.5828001829034349    0.4607839689093906    0.2758071880783497    
  0.16590484572668682    0.16589393831824772    0.1151876943670875    0.16589389594843781    0.3291964105078042    
  0.5210419685651551    0.6031925432010394    0.6116940604945612    0.6031925530869972    0.5210419616856812    
  0.32919637872029045    0.1658939143434659    0.1151876943670875    0.0526153800150603    0.09257781661964594    
  0.255774494037759    0.502599289465151    0.6394170623087884    0.6635436685122547    0.6394170300390717    
  0.5025993022857809    0.2557744923338236    0.09257783832472748    0.0526153800150603    0.09257785365336355    
  0.09261636024342543    0.19746873102481247    0.41831549836437293    0.6018972637887122    0.6560579655392387    
  0.6560402732630525    0.6019267673087115    0.41828448685664693    0.19749979931666128    0.09257785365336355    
  0.25577450453239503    0.19746875442598563    0.2557304324696329    0.4183125753732119    0.5815921160876075    
  0.6438004057782089    0.6493188349814237    0.643782000199252    0.5816087811482727    0.4182844695433987    
  0.25577450453239503    0.5025993381440249    0.4183154825887901    0.41831252349917525    0.5026563012523328    
  0.6018975576406407    0.6437972524802522    0.6429421364119297    0.6429678554005588    0.6437821009505926    
  0.6019267630323619    0.5025993381440249    0.6394170353223112    0.6018972777759194    0.5815920867039776    
  0.6018976062922597    0.6393709479367298    0.6560563849951234    0.6493188706122008    0.6429421753733164    
  0.6493189095198671    0.6560402564622396    0.6394170353223112    0.6635437843689896    0.6560578419130507    
  0.6438004000384057    0.643797288501686    0.6560564238943796    0.6635788403234687    0.6560563547673618    
  0.6437972734998948    0.6438004575011392    0.6560580163361238    0.6635437843689896    0.6394170283599347    
  0.6560402107212399    0.6493187973792167    0.6429422750040532    0.6493189060061624    0.656056387255426    
  0.6393708923340988    0.6018975657649017    0.5815921306085735    0.6018971733272208    0.6394170283599347    
  0.5025992765266892    0.6019267703435417    0.6437820419023074    0.6429680008794805    0.6429421657166458    
  0.6437972736523977    0.6018975378312221    0.5026562195849936    0.41831255499196823    0.4183154590197363    
  0.5025992765266892    0.25577455622462775    0.4182844569683783    0.5816087367428132    0.6437820968097955    
  0.6493188991575551    0.6438004187534904    0.5815920339384107    0.418312530286497    0.25573044052035626    
  0.19746875357184504    0.25577455622462775    0.09257785358456948    0.19749980468379766    0.418284483486509    
  0.6019267565006207    0.6560402571739452    0.6560579038909217    0.6018973570484957    0.4183154839554307    
  0.197468808770609    0.09261636830191855    0.09257785358456948    0.0526153800150603    0.09257781661964594    
  0.255774494037759    0.502599289465151    0.6394170623087884    0.6635436685122547    0.6394170300390717    
  0.5025993022857809    0.2557744923338236    0.09257783832472748    0.0526153800150603    
  END_DATAGRID_3D    
  END_BLOCK_DATAGRID_3D    