#     DFTpy    
  CRYSTAL 
    
  PRIMVEC    
  1.1837624439771133    -2.0503366970602674    0.0    
  1.1837624439771133    2.0503366970602674    0.0    
  0.0    0.0    2.2282236213103443    
  PRIMCOORD    
  1    1    
  Si    0.0    0.0    0.0    
  BEGIN_BLOCK_DATAGRID_3D    
  3d_datagrid_density    
  BEGIN_DATAGRID_3D#0    
  11    11    11    
  0.0    0.0    0.0    
  1.1837624439771133    -2.0503366970602674    0.0    
  1.1837624439771133    2.0503366970602674    0.0    
  0.0    0.0    2.2282236213103443    
  0.049194922135426165    0.09352834631991103    0.2626127400569593    0.4521819128949661    0.4944172605884413    
  0.4835048795894685    0.4944172892427112    0.45218183208482887    0.26261273758697434    0.09352834317128271    
  0.049194922135426165    0.09352836621942598    0.09348931690951846    0.20527773725356702    0.3978021051332757    
  0.48910746605575245    0.4789814188461524    0.47901847360877653    0.48908910320661664    0.397715663297926    
  0.2053241955153022    0.09352836621942598    0.26261275974302006    0.20527778623818854    0.26274565581582965    
  0.39772135972341505    0.4818548903130298    0.4726672731178976    0.4555183387444342    0.47264325027849796    
  0.48198069597972604    0.3977155999347346    0.26261275974302006    0.4521818624191585    0.3978022002175945    
  0.39772135115893975    0.45210210063921025    0.4890613275645435    0.47278093086416295    0.44534436590906745    
  0.4453906422379591    0.4726431924212819    0.48908909369055137    0.4521818624191585    0.4944173550346563    
  0.48910741545412134    0.4818548959367247    0.48906132348351067    0.4945432780490617    0.47900878570808825    
  0.4554130919491107    0.4453444141057202    0.4555184585312542    0.4790184388914346    0.4944173550346563    
  0.4835049800081278    0.4789814188404381    0.4726672823296429    0.47278103366296875    0.47900877928134067    
  0.4833684860916251    0.47900882907724496    0.472781005432885    0.47266726570296036    0.478981476245295    
  0.4835049800081278    0.4944172831362032    0.4790183976520882    0.45551837075643326    0.4453443298711963    
  0.45541311880711893    0.479008910407286    0.49454317165103523    0.4890613772117367    0.48185492640368    
  0.48910741538722574    0.4944172831362032    0.4521819051142224    0.4890891114113783    0.472643147146386    
  0.44539069970859413    0.4453443331416937    0.4727809733773455    0.4890612840057026    0.4521021527517613    
  0.39772132374473035    0.39780213557389105    0.4521819051142224    0.2626127511993296    0.39771565298741673    
  0.48198057380380943    0.4726431753538083    0.4555183430756485    0.47266719764987986    0.48185490427152333    
  0.3977213460692103    0.2627456401664526    0.2052777511185732    0.2626127511993296    0.0935283533518658    
  0.2053242339961054    0.39771555660106966    0.48908907651132955    0.4790184829473482    0.4789814003555335    
  0.48910745672423567    0.39780213768092165    0.20527778066627655    0.0934893335368928    0.0935283533518658    
  0.049194922135426165    0.09352834631991103    0.2626127400569593    0.4521819128949661    0.4944172605884413    
  0.4835048795894685    0.4944172892427112    0.45218183208482887    0.26261273758697434    0.09352834317128271    
  0.049194922135426165    0.09049108609221677    0.14343233558085525    0.30720361866412976    0.4529100742685743    
  0.46782927882578096    0.45212731793768335    0.46782933516526737    0.4529100439470377    0.30720361263822665    
  0.14343232357949012    0.09049108609221677    0.1434323459936994    0.14335869227329678    0.2559318605521863    
  0.4150534522805649    0.4695728940391799    0.4486602099872851    0.4487003688084094    0.4695456557785209    
  0.41499805120800093    0.25595321730284754    0.1434323459936994    0.3072036181608557    0.25593186086939274    
  0.30735205870294485    0.4149860990404679    0.4660184032132233    0.4439261140359024    0.4251529126846199    
  0.44390999757831656    0.46610961956349617    0.41499800895993083    0.3072036181608557    0.45291007468926536    
  0.41505344631917107    0.4149860364880247    0.4528183258873821    0.46953462925739553    0.4440114522486916    
  0.4154151209222233    0.41544820448918574    0.443909979033483    0.4695456188929626    0.45291007468926536    
  0.46782936021705784    0.4695728893205591    0.46601844289085437    0.4695346445455756    0.4679530536733367    
  0.4486865235982842    0.42507411509559084    0.4154151135560917    0.42515297381380457    0.44870038697575704    
  0.46782936021705784    0.45212741814677576    0.44866011745629253    0.44392610229110374    0.44401153850075653    
  0.44868649733487165    0.451996159937267    0.4486864857334305    0.4440114795929951    0.44392606057129563    
  0.44866019385839834    0.45212741814677576    0.4678292968060346    0.4487003327618177    0.42515298432766974    
  0.415415113810511    0.4250740910642237    0.44868656598981643    0.46795295710002055    0.46953455595881705    
  0.4660185010921605    0.46957289439833966    0.4678292968060346    0.4529101303699658    0.46954563349913353    
  0.4439099628320475    0.41544821578437996    0.41541505925288863    0.4440114921771314    0.46953452934717116    
  0.4528183559557209    0.4149860850716118    0.4150534004075473    0.4529101303699658    0.3072036010848352    
  0.4149980599261091    0.4661095339405407    0.44390998866425047    0.42515299729140144    0.44392605335359747    
  0.46601850861290145    0.4149860938992911    0.3073520436874853    0.2559318732273791    0.3072036010848352    
  0.1434323489845753    0.25595323692299543    0.41499794642741267    0.4695456553626939    0.4487004441458297    
  0.44866014850485014    0.4695730016254306    0.41505344196010124    0.25593192350671917    0.14335870931902991    
  0.1434323489845753    0.09049108609221677    0.14343233558085525    0.30720361866412976    0.4529100742685743    
  0.46782927882578096    0.45212731793768335    0.46782933516526737    0.4529100439470377    0.30720361263822665    
  0.14343232357949012    0.09049108609221677    0.26073766798968234    0.3102995714686566    0.40772552248765187    
  0.43880045705693066    0.40069388642904447    0.37682651354237573    0.40069390320614356    0.4388003811470721    
  0.407725402595429    0.310299561812464    0.26073766798968234    0.3102995792846878    0.31021158540082927    
  0.3836443049643808    0.43806429971974037    0.4153013282148519    0.3753681006902337    0.37538909285561334    
  0.4152838006614078    0.4380535356377332    0.3836331598755871    0.3102995792846878    0.40772553785962906    
  0.3836443844032103    0.407826828913067    0.43803212011935655    0.4188485320037949    0.37354616179562017    
  0.3524502246240638    0.3735429163492215    0.418873805827207    0.4380535068272559    0.40772553785962906    
  0.4388004714662073    0.4380643449149682    0.4380321355109493    0.4387455990912287    0.4152859199513899    
  0.3735749084872518    0.3437892795537676    0.3437985590610136    0.3735429097544822    0.4152837980027398    
  0.4388004714662073    0.4006939255244958    0.4153013235177334    0.4188485754285394    0.41528595090837206    
  0.40075726674975415    0.3753810200603303    0.3524232774360467    0.3437892137620287    0.3524502714794013    
  0.3753890729519456    0.4006939255244958    0.3768266116409546    0.3753680796034991    0.373546163245196    
  0.3735749776291075    0.3753810064271497    0.3767598033964399    0.3753810215303651    0.37357495609159025    
  0.3735461042701702    0.3753681079962386    0.3768266116409546    0.4006938623063859    0.3753890684753851    
  0.3524502337930484    0.3437891896160151    0.35242328909748505    0.37538109294885563    0.40075723329901874    
  0.4152858663407555    0.41884859337950203    0.41530130349039585    0.4006938623063859    0.438800516386784    
  0.41528379668768284    0.37354288281604875    0.3437985691120477    0.343789202707997    0.3735749539641192    
  0.415285845248493    0.4387456585155917    0.4380321173350514    0.43806425250686803    0.438800516386784    
  0.4077254944315388    0.438053590130261    0.4188737437133686    0.37354287250312845    0.35245029908892717    
  0.3735461319130364    0.4188486069403436    0.4380321567372443    0.40782676961681147    0.38364435224773596    
  0.4077254944315388    0.3102995950191641    0.3836331824741905    0.4380533899248774    0.4152838018571288    
  0.3753891689044898    0.37536807531674476    0.4153013854792887    0.43806431975131066    0.3836444565192945    
  0.31021162965049737    0.3102995950191641    0.26073766798968234    0.3102995714686566    0.40772552248765187    
  0.43880045705693066    0.40069388642904447    0.37682651354237573    0.40069390320614356    0.4388003811470721    
  0.407725402595429    0.310299561812464    0.26073766798968234    0.5082021273831421    0.5064188458427044    
  0.473726922380874    0.39744876751630925    0.32490121072546907    0.2972500468314937    0.3249012640465818    
  0.3974486812581373    0.4737269102664844    0.5064188681250633    0.5082021273831421    0.5064188577714881    
  0.5063950097702802    0.4874184634376181    0.4261976663879315    0.3471805916980895    0.2970919822529725    
  0.2970948127455118    0.34717850932565586    0.42619477092424385    0.48741486520205646    0.5064188577714881    
  0.47372698098574056    0.4874184290517451    0.4737502098186224    0.4261885641536928    0.3554703446495441    
  0.2971379187447425    0.2756491750872306    0.2971371062818679    0.355473847093394    0.42619472186415713    
  0.47372698098574056    0.39744876357896414    0.4261976843506096    0.4261885246678501    0.3974408688053393    
  0.3471790080842097    0.297142279013454    0.2679991574477015    0.26800152456290577    0.29713709926845694    
  0.3471785183079438    0.39744876357896414    0.3249012440419106    0.3471806073403971    0.3554703553708781    
  0.34717907443279034    0.32491053096828443    0.29709352626851065    0.2756453783267225    0.2679990974706607    
  0.2756492204903447    0.2970948041094473    0.3249012440419106    0.2972500913850422    0.29709190288280524    
  0.2971379314263211    0.29714233574579935    0.2970934929134981    0.2972402586778699    0.2970934890975822    
  0.2971423043236431    0.29713790020952774    0.2970919551058562    0.2972500913850422    0.3249012215433815    
  0.2970947825153785    0.2756491918975823    0.26799908100115594    0.27564540054557995    0.29709354056605536    
  0.3249104901021153    0.34717899199533847    0.35547043563851066    0.34718058191227497    0.3249012215433815    
  0.39744883130722375    0.34717852232243296    0.2971370766198206    0.2680015319740527    0.26799909362813756    
  0.2971423028510979    0.3471789815165621    0.39744091344547405    0.42618864088432834    0.42619765206286486    
  0.39744883130722375    0.4737269260559672    0.42619483822655346    0.3554738069068937    0.29713708584219223    
  0.2756492126864178    0.2971379034738533    0.35547039530502494    0.42618862469232216    0.47375009067160406    
  0.4874184634147256    0.4737269260559672    0.5064188499243281    0.48741489180004244    0.42619469090591106    
  0.3471784747849751    0.2970948738777676    0.29709192300348486    0.3471806415872242    0.4261976515547884    
  0.48741856993149346    0.5063950408712642    0.5064188499243281    0.5082021273831421    0.5064188458427044    
  0.473726922380874    0.39744876751630925    0.32490121072546907    0.2972500468314937    0.3249012640465818    
  0.3974486812581373    0.4737269102664844    0.5064188681250633    0.5082021273831421    0.629724640629122    
  0.5846056426733102    0.4735208212977083    0.35261659917748067    0.27025847235044764    0.24272290399822047    
  0.27025849908369326    0.3526165443057235    0.4735208102866898    0.5846056384521352    0.629724640629122    
  0.5846056385625709    0.5846011314812445    0.5067778624465776    0.3924340569447522    0.2945106066421802    
  0.2430433428374411    0.24304686946922005    0.29450797247095045    0.39242613035092333    0.5067868031981958    
  0.5846056385625709    0.47352080758105797    0.5067779173502305    0.47353349340577366    0.39242701971646254    
  0.3044509524064691    0.24377406888411135    0.22314378366524146    0.24377182097920566    0.30446096138056084    
  0.3924261046099847    0.47352080758105797    0.3526166119998573    0.39243402438134284    0.39242696146290945    
  0.3526129422585101    0.2945106076906433    0.2437770425902611    0.21610620097863453    0.21610680750146863    
  0.2437717893010587    0.2945079706008988    0.3526166119998573    0.2702585019505198    0.29451058294335763    
  0.3044509643152403    0.294510619831067    0.2702598277380785    0.2430464276888936    0.22313874463776065    
  0.21610616394961157    0.22314385885551216    0.24304688134337696    0.2702585019505198    0.2427229615178038    
  0.24304325767563106    0.24377403278359153    0.24377707850600686    0.24304639099174066    0.24271867865685098    
  0.24304640777278808    0.243777072107108    0.2437740114413392    0.2430433124573901    0.2427229615178038    
  0.27025848063988767    0.24304683630472768    0.22314383439430413    0.2161061493672605    0.22313871581871417    
  0.2430464462919209    0.2702597896524236    0.29451056613833937    0.30445103080924774    0.29451059776001387    
  0.27025848063988767    0.3526166478524175    0.29450795978777955    0.2437717813484485    0.21610681086938172    
  0.2161061283017636    0.2437770674536912    0.2945105161344416    0.352612985222694    0.3924270179637981    
  0.39243399793571243    0.3526166478524175    0.47352075110940955    0.39242615038010853    0.3044609233293545    
  0.24377179539145985    0.22314382905132743    0.2437740085743139    0.3044510035837546    0.39242703983523647    
  0.4735335471892125    0.5067778652572104    0.47352075110940955    0.5846056400286563    0.5067868713510815    
  0.39242607816789593    0.2945079894398309    0.2430469277470633    0.2430432687392003    0.2945106573647605    
  0.3924340208097219    0.5067779647092935    0.5846012444208727    0.5846056400286563    0.629724640629122    
  0.5846056426733102    0.4735208212977083    0.35261659917748067    0.27025847235044764    0.24272290399822047    
  0.27025849908369326    0.3526165443057235    0.4735208102866898    0.5846056384521352    0.629724640629122    
  0.6455865375408089    0.5901508749040462    0.46267395794899047    0.3340944483312947    0.2509436382081435    
  0.22394068226087835    0.2509436478726031    0.334094385068051    0.46267395178405624    0.590150975571242    
  0.6455865375408089    0.590150934993466    0.5901383976585801    0.4997672317110866    0.37574538339584124    
  0.2752984947157053    0.22437288921256895    0.2243779504836982    0.27529348698591827    0.37573896490467984    
  0.49977446906455963    0.590150934993466    0.46267397607159433    0.4997673167868031    0.4626918119962056    
  0.3757384920588317    0.2855325805750083    0.22525652385868294    0.20514659172475275    0.22525549080932758    
  0.28554269977201074    0.3757389106519635    0.46267397607159433    0.33409441161644526    0.3757454569507851    
  0.37573845868718797    0.334087592475952    0.27529753164070514    0.22526050002475737    0.19833067887723393    
  0.19832926705584056    0.22525543383039073    0.27529350253660223    0.33409441161644526    0.2509436944719502    
  0.27529844165975825    0.28553258969700823    0.2752975484371137    0.25094725343244884    0.2243772587731313    
  0.20513996419315167    0.19833068612986904    0.2051466481819617    0.22437794881684228    0.2509436944719502    
  0.22394073774548803    0.22437288140351547    0.2252565098566604    0.22526054142037855    0.2243772443689611    
  0.223933524847648    0.22437729481399954    0.22526053061002482    0.2252564930648834    0.22437292113537996    
  0.22394073774548803    0.2509436679092271    0.22437791590841302    0.20514660476700264    0.1983306371172308    
  0.20513996080479724    0.2243773449341974    0.2509471938931414    0.27529757299424007    0.2855326051324339    
  0.27529844697825967    0.2509436679092271    0.33409444342909256    0.2752935167696778    0.22525543886770225    
  0.19832932632492273    0.19833064504701034    0.22526052807917746    0.2752975151052532    0.3340876192805284    
  0.37573845981830223    0.3757454138418619    0.33409444342909256    0.46267394267913026    0.37573895705707516    
  0.28554262622686294    0.2252554526861801    0.20514658128613228    0.2252564747553337    0.28553259830433003    
  0.37573847336431393    0.46269181973047335    0.49976726431080154    0.46267394267913026    0.5901509399536834    
  0.4997745626915716    0.37573887264556327    0.2752934941535811    0.22437797183264133    0.22437287333797296    
  0.2752984714102379    0.37574541926923166    0.49976732996136874    0.5901384818162624    0.5901509399536834    
  0.6455865375408089    0.5901508749040462    0.46267395794899047    0.3340944483312947    0.2509436382081435    
  0.22394068226087835    0.2509436478726031    0.334094385068051    0.46267395178405624    0.590150975571242    
  0.6455865375408089    0.6297246417700384    0.5846056401291255    0.4735208283521099    0.3526166013819001    
  0.2702584635893614    0.24272290428400678    0.27025851072379015    0.35261656494512233    0.4735208416602912    
  0.5846056244604952    0.6297246417700384    0.5846056675431633    0.5846011475098858    0.5067779048919445    
  0.39243404606350646    0.2945105906404346    0.24304333376968917    0.24304688374922268    0.29450797982738053    
  0.3924261362280851    0.5067868417944126    0.5846056675431633    0.47352077779586116    0.5067778813189652    
  0.47353353567933465    0.39242703871404905    0.30445093327302747    0.24377405639616792    0.22314380854182875    
  0.24377180690352065    0.30446096488618746    0.3924261108271717    0.47352077779586116    0.35261659584355987    
  0.39243401855890253    0.3924269632641876    0.35261294723249836    0.2945106099025719    0.24377704023347482    
  0.21610617850974634    0.2161067974471711    0.243771777248212    0.2945079620454416    0.35261659584355987    
  0.2702585255283191    0.2945105854773696    0.30445096382413755    0.29451062620581786    0.2702598358032157    
  0.24304643106347532    0.223138747914577    0.2161061522227604    0.22314384170333068    0.24304688580100672    
  0.2702585255283191    0.24272295838314517    0.2430432637791894    0.24377403023225516    0.2437770809273921    
  0.24304640644110134    0.24271867780842954    0.2430464061990914    0.2437770644561564    0.24377399042710274    
  0.2430433054713805    0.24272295838314517    0.27025848635127814    0.24304684446495323    0.2231438421415759    
  0.2161061627415368    0.2231387271085364    0.24304644810889678    0.2702597806643706    0.29451055494505224    
  0.3044510198524893    0.29451057038578415    0.27025848635127814    0.352616653880107    0.29450795954348924    
  0.24377178123683618    0.21610681339860371    0.21610612587824438    0.24377706384631262    0.2945105253423742    
  0.3526129690203846    0.3924270205683591    0.39243400004878426    0.352616653880107    0.4735208073782406    
  0.39242616555139    0.3044608972298177    0.24377180487454614    0.22314385221736271    0.24377399757212678    
  0.3044510211129234    0.3924270166338606    0.4735335167943596    0.5067779163239793    0.4735208073782406    
  0.5846056836756569    0.5067868862117424    0.39242605256241814    0.29450798485407204    0.2430469478399631    
  0.24304329576821376    0.2945106607188335    0.3924340317850263    0.5067779680037722    0.5846012147028025    
  0.5846056836756569    0.6297246417700384    0.5846056401291255    0.4735208283521099    0.3526166013819001    
  0.2702584635893614    0.24272290428400678    0.27025851072379015    0.35261656494512233    0.4735208416602912    
  0.5846056244604952    0.6297246417700384    0.5082021589962411    0.506418861859408    0.4737269798969825    
  0.3974487849848681    0.3249012195912367    0.2972500310237124    0.3249012391757415    0.39744871538613835    
  0.47372686670878045    0.5064188709188651    0.5082021589962411    0.5064188710826314    0.5063950322130415    
  0.4874184141254911    0.4261976705574948    0.34718061374699777    0.29709194963300767    0.2970948254189971    
  0.3471785065202782    0.4261947848170721    0.4874149005108977    0.5064188710826314    0.47372698067336155    
  0.48741849965482753    0.4737501583258883    0.4261885882993926    0.35547032873617734    0.29713794320294246    
  0.27564916350222446    0.2971371074619791    0.35547386273852205    0.426194767165886    0.47372698067336155    
  0.39744879392113575    0.42619771140335333    0.42618858046897834    0.39744086416273533    0.34717903712021214    
  0.29714225883649864    0.2679991561709225    0.2680015316384614    0.2971371024152884    0.34717851297841973    
  0.39744879392113575    0.32490125094580824    0.3471806074405158    0.35547035975632774    0.3471790670804301    
  0.32491049989366416    0.29709350810985724    0.27564535260451606    0.2679990982393649    0.27564920196775317    
  0.2970948064273449    0.32490125094580824    0.29725011769561716    0.2970919380213116    0.2971379282803972    
  0.29714232050046085    0.2970934799168209    0.29724024337960625    0.29709349223286413    0.2971422911445833    
  0.29713788311020495    0.29709194630085306    0.29725011769561716    0.3249012120365936    0.29709480562929097    
  0.2756491656085489    0.26799907320045446    0.2756453731416633    0.29709356529247355    0.3249104674755941    
  0.34717898531269886    0.3554703758104135    0.34718058289806986    0.3249012120365936    0.39744884369443656    
  0.3471785135864871    0.2971370878907765    0.2680015278524965    0.2679990837551867    0.2971422963914949    
  0.3471789736830504    0.3974409251221608    0.4261885820396296    0.4261976194064575    0.39744884369443656    
  0.47372696698937067    0.4261948509693312    0.35547382065134225    0.2971370745855487    0.27564921460155356    
  0.2971379191279694    0.3554704048204264    0.4261886047155158    0.47375010419991254    0.4874184465843035    
  0.47372696698937067    0.5064188994579392    0.48741491781561036    0.42619465214765156    0.34717849688226377    
  0.29709489497280417    0.2970919178698156    0.3471806652452738    0.4261977000262033    0.48741856619851026    
  0.5063950716863658    0.5064188994579392    0.5082021589962411    0.506418861859408    0.4737269798969825    
  0.3974487849848681    0.3249012195912367    0.2972500310237124    0.3249012391757415    0.39744871538613835    
  0.47372686670878045    0.5064188709188651    0.5082021589962411    0.26073766755081124    0.31029957134159886    
  0.4077254896746371    0.4388004429870248    0.4006938726206036    0.37682654412375227    0.4006939276334883    
  0.4388003584601022    0.4077254599091727    0.31029956891099325    0.26073766755081124    0.3102995827881199    
  0.3102116036262039    0.3836443790336484    0.43806427995495195    0.4153013050167647    0.3753681262924919    
  0.37538908753094474    0.4152838071261602    0.43805352873871223    0.3836331486691399    0.3102995827881199    
  0.4077255297485691    0.3836443612983636    0.4078268846328691    0.43803211516948487    0.4188485425831172    
  0.3735461384425037    0.35245023877493387    0.37354291871035733    0.4188737635642871    0.4380534853328561    
  0.4077255297485691    0.4388004247168121    0.4380643079762507    0.4380320702654025    0.43874559100224436    
  0.415285893876557    0.3735749229916398    0.3437892671517667    0.3437985704862758    0.3735429204803438    
  0.4152838047948699    0.4388004247168121    0.4006939068200501    0.4153013189641557    0.4188485623673272    
  0.4152859441588637    0.400757283726022    0.37538103272695555    0.3524232725918489    0.343789218343754    
  0.3524502968563421    0.3753890559591154    0.4006939068200501    0.3768265909273779    0.3753680534953409    
  0.37354615698070975    0.3735750044096202    0.3753810203666886    0.3767597951815924    0.37538098994358465    
  0.37357495056189666    0.37354611175870184    0.37536809725647674    0.3768265909273779    0.40069387430844705    
  0.37538904676442086    0.35245023721160484    0.3437892029945273    0.35242330349744644    0.37538105611121575    
  0.4007572272837394    0.41528586852942634    0.41884863950634654    0.41530126920301363    0.40069387430844705    
  0.43880052508908635    0.4152838295056661    0.3735428756882843    0.34379856674542186    0.343789206219124    
  0.3735749510931242    0.41528584353699377    0.4387456527940168    0.43803218586293047    0.43806426993643205    
  0.43880052508908635    0.40772550248801404    0.4380536142971505    0.4188737399982598    0.3735428950533493    
  0.35245028625372143    0.3735461142277684    0.41884860148430647    0.4380321895848066    0.4078267634661696    
  0.38364438601019624    0.40772550248801404    0.3102995861803521    0.3836331881645616    0.43805345068220664    
  0.4152837828220646    0.375389134031275    0.3753680702993933    0.41530136431278913    0.4380642670913993    
  0.3836444595164989    0.31021160305672624    0.3102995861803521    0.26073766755081124    0.31029957134159886    
  0.4077254896746371    0.4388004429870248    0.4006938726206036    0.37682654412375227    0.4006939276334883    
  0.4388003584601022    0.4077254599091727    0.31029956891099325    0.26073766755081124    0.09049109199463774    
  0.14343234463150173    0.3072036182201353    0.452910080635897    0.4678292864057987    0.45212732326284716    
  0.46782933874965976    0.45291002447172546    0.30720359974281336    0.14343233269589056    0.09049109199463774    
  0.1434323501984858    0.14335868857273357    0.25593185739239693    0.41505346899307394    0.46957291480612684    
  0.44866023510355085    0.4487003576841889    0.469545663045123    0.41499803983804096    0.2559531947654072    
  0.1434323501984858    0.3072036238781543    0.25593188456379173    0.3073520349472736    0.414986080786939    
  0.4660184241578064    0.44392613738167486    0.4251528802998897    0.44391002113455763    0.46610964364709684    
  0.41499801567908284    0.3072036238781543    0.4529100754313579    0.41505345130603805    0.41498604368197994    
  0.45281831260854444    0.46953462648766503    0.44401143935716053    0.41541512766655014    0.41544822086429295    
  0.44390999268211634    0.46954562575496717    0.4529100754313579    0.4678293282048247    0.46957290157347653    
  0.4660184370780392    0.469534629271357    0.46795304288166745    0.44868650336281213    0.4250740827882017    
  0.415415113919612    0.4251529884690159    0.4487003662526749    0.4678293282048247    0.45212742988172244    
  0.448660099507072    0.4439260998221494    0.44401150915814735    0.448686482183839    0.45199612987979576    
  0.4486864701589719    0.44401149949082097    0.44392608909617687    0.44866018545615177    0.45212742988172244    
  0.4678292925308918    0.44870030934301847    0.4251529651813104    0.4154150884152622    0.4250740679355054    
  0.448686542565929    0.46795296570928796    0.46953457970989704    0.4660185178120849    0.46957290249294803    
  0.4678292925308918    0.4529101321303015    0.4695456403491825    0.4439099284184239    0.41544821399059795    
  0.4154150543524538    0.44401149635940196    0.46953449970934075    0.4528183742951542    0.4149860779775648    
  0.415053403642701    0.4529101321303015    0.3072035950606576    0.41499805982113463    0.4661095687934978    
  0.44390998801262627    0.4251529635594417    0.4439260525989586    0.4660185075190367    0.4149861085555411    
  0.30735207342027576    0.25593186334704265    0.3072035950606576    0.14343235004241978    0.25595323632751077    
  0.414997973334446    0.46954566753110677    0.44870043004930027    0.4486601129760951    0.4695729928765407    
  0.415053431707268    0.25593193084784827    0.14335873546788572    0.14343235004241978    0.09049109199463774    
  0.14343234463150173    0.3072036182201353    0.452910080635897    0.4678292864057987    0.45212732326284716    
  0.46782933874965976    0.45291002447172546    0.30720359974281336    0.14343233269589056    0.09049109199463774    
  0.049194922135426165    0.09352834631991103    0.2626127400569593    0.4521819128949661    0.4944172605884413    
  0.4835048795894685    0.4944172892427112    0.45218183208482887    0.26261273758697434    0.09352834317128271    
  0.049194922135426165    0.09352836621942598    0.09348931690951846    0.20527773725356702    0.3978021051332757    
  0.48910746605575245    0.4789814188461524    0.47901847360877653    0.48908910320661664    0.397715663297926    
  0.2053241955153022    0.09352836621942598    0.26261275974302006    0.20527778623818854    0.26274565581582965    
  0.39772135972341505    0.4818548903130298    0.4726672731178976    0.4555183387444342    0.47264325027849796    
  0.48198069597972604    0.3977155999347346    0.26261275974302006    0.4521818624191585    0.3978022002175945    
  0.39772135115893975    0.45210210063921025    0.4890613275645435    0.47278093086416295    0.44534436590906745    
  0.4453906422379591    0.4726431924212819    0.48908909369055137    0.4521818624191585    0.4944173550346563    
  0.48910741545412134    0.4818548959367247    0.48906132348351067    0.4945432780490617    0.47900878570808825    
  0.4554130919491107    0.4453444141057202    0.4555184585312542    0.4790184388914346    0.4944173550346563    
  0.4835049800081278    0.4789814188404381    0.4726672823296429    0.47278103366296875    0.47900877928134067    
  0.4833684860916251    0.47900882907724496    0.472781005432885    0.47266726570296036    0.478981476245295    
  0.4835049800081278    0.4944172831362032    0.4790183976520882    0.45551837075643326    0.4453443298711963    
  0.45541311880711893    0.479008910407286    0.49454317165103523    0.4890613772117367    0.48185492640368    
  0.48910741538722574    0.4944172831362032    0.4521819051142224    0.4890891114113783    0.472643147146386    
  0.44539069970859413    0.4453443331416937    0.4727809733773455    0.4890612840057026    0.4521021527517613    
  0.39772132374473035    0.39780213557389105    0.4521819051142224    0.2626127511993296    0.39771565298741673    
  0.48198057380380943    0.4726431753538083    0.4555183430756485    0.47266719764987986    0.48185490427152333    
  0.3977213460692103    0.2627456401664526    0.2052777511185732    0.2626127511993296    0.0935283533518658    
  0.2053242339961054    0.39771555660106966    0.48908907651132955    0.4790184829473482    0.4789814003555335    
  0.48910745672423567    0.39780213768092165    0.20527778066627655    0.0934893335368928    0.0935283533518658    
  0.049194922135426165    0.09352834631991103    0.2626127400569593    0.4521819128949661    0.4944172605884413    
  0.4835048795894685    0.4944172892427112    0.45218183208482887    0.26261273758697434    0.09352834317128271    
  0.049194922135426165    
  END_DATAGRID_3D    
  END_BLOCK_DATAGRID_3D    