#     DFTpy    
  CRYSTAL 
    
  PRIMVEC    
  1.2650896347847014    -2.191199523575858    0.0    
  1.2650896347847014    2.191199523575858    0.0    
  0.0    0.0    2.3813076868965517    
  PRIMCOORD    
  1    1    
  Si    0.0    0.0    0.0    
  BEGIN_BLOCK_DATAGRID_3D    
  3d_datagrid_density    
  BEGIN_DATAGRID_3D#0    
  11    11    11    
  0.0    0.0    0.0    
  1.2650896347847014    -2.191199523575858    0.0    
  1.2650896347847014    2.191199523575858    0.0    
  0.0    0.0    2.3813076868965517    
  0.05035717565470337    0.10107574501576597    0.27988905404974157    0.4227069917866775    0.4049772890962639    
  0.37792523719487464    0.4049772328214351    0.42270693279973753    0.2798891139378464    0.10107575600873725    
  0.05035717565470337    0.10107573489263928    0.10088542772434794    0.22279138677718208    0.39193613723692483    
  0.41820122245699254    0.37573883320183216    0.37583192305564334    0.4181266031414818    0.39184902002465793    
  0.22278603204340044    0.10107573489263928    0.2798891149123119    0.22279134521741956    0.280284239387982    
  0.3917868324882348    0.41898293429328315    0.372433290459263    0.34753090783975266    0.372406837862524    
  0.41915290775744196    0.3918490807284641    0.2798891149123119    0.42270706025387966    0.3919362156088367    
  0.39178685805702973    0.42244858483249104    0.41810035805268625    0.3726265164221987    0.33628240190722036    
  0.33636991459259263    0.3724068501358541    0.41812662298710407    0.42270706025387966    0.4049772810510546    
  0.4182012527345747    0.4189829108174502    0.4181003412972469    0.40531698525544113    0.3757793945352873    
  0.3473834191857249    0.33628238370888053    0.3475309291102072    0.3758319332080056    0.4049772810510546    
  0.3779252113049311    0.37573889650368847    0.3724332374363944    0.3726264475604577    0.3757794201280764    
  0.37761255038210345    0.37577941578563884    0.37262644169030845    0.3724333170037045    0.37573889586514597    
  0.3779252113049311    0.40497729909100416    0.37583194137145964    0.34753091314427353    0.3362823712257135    
  0.347383461334167    0.3757793578284743    0.4053169591202663    0.4181003150194231    0.418982853131452    
  0.41820120648020154    0.40497729909100416    0.42270703269572496    0.41812666197193304    0.37240680289942785    
  0.33636990448126786    0.33628239649174174    0.37262652070493685    0.4181003504966577    0.4224485144266212    
  0.39178680516292497    0.3919362070334934    0.42270703269572496    0.2798891274961395    0.39184909287223413    
  0.4191528545774009    0.3724068407779648    0.3475309200525224    0.37243330278837133    0.41898299277465434    
  0.3917867997508135    0.2802841759931997    0.22279134546007742    0.2798891274961395    0.10107573594569903    
  0.2227860006017263    0.3918490733540219    0.41812657379684126    0.37583201972483377    0.37573886459912886    
  0.4182012055358396    0.3919361438136812    0.22279135447333856    0.10088547786922449    0.10107573594569903    
  0.05035717565470337    0.10107574501576597    0.27988905404974157    0.4227069917866775    0.4049772890962639    
  0.37792523719487464    0.4049772328214351    0.42270693279973753    0.2798891139378464    0.10107575600873725    
  0.05035717565470337    0.09749579621437991    0.157120062669689    0.3213752623109728    0.41508867520699744    
  0.37898486773705803    0.35070270377988    0.37898482807534206    0.4150885907208931    0.32137534129704337    
  0.15712005453178868    0.09749579621437991    0.15712007177714649    0.15689655561096136    0.27407406037815846    
  0.40047488685108096    0.39594165511006446    0.34907944618159226    0.3491552263850709    0.3958741005335875    
  0.40043213803718525    0.2740388557044015    0.15712007177714649    0.3213753095761994    0.27407398122269305    
  0.3217273806616739    0.40036321043661083    0.3993839588192795    0.3466836961838091    0.32190132916070696    
  0.3466710957888492    0.39949119713695863    0.4004321980401338    0.3213753095761994    0.41508876074630097    
  0.40047493025473385    0.4003632249192044    0.4148717265173065    0.39586971403169546    0.34681642911197585    
  0.3112884978321276    0.31134288507009583    0.34667108536640373    0.3958741017233313    0.41508876074630097    
  0.37898484932690296    0.3959416401140512    0.39938395146465816    0.39586968100373726    0.3792483636428898    
  0.3491102521311421    0.32180191983658146    0.31128846174244784    0.3219013549079436    0.34915524091011424    
  0.37898484932690296    0.35070271706257033    0.34907944320873036    0.3466836104292493    0.34681636569622676    
  0.3491102675213057    0.3504631771995898    0.3491102369848827    0.34681640643395867    0.3466837273537753    
  0.34907946852375404    0.35070271706257033    0.37898482720372983    0.34915523210326527    0.3219013284051976    
  0.311288431680339    0.3218019537655364    0.349110205399381    0.3792483573983377    0.3958696337317692    
  0.3993838987231345    0.39594162226664387    0.37898482720372983    0.41508872022210624    0.39587415113749574    
  0.346671071720958    0.3113428617701025    0.311288488963482    0.34681643377260374    0.39586973638196893    
  0.41487167132759956    0.4003631646402672    0.40047490546205045    0.41508872022210624    0.321375318209914    
  0.4004322075413123    0.3994911917820777    0.3466710808421208    0.3219013586485056    0.3466836725652114    
  0.3993840151263935    0.4003631833461393    0.3217273817285169    0.2740739734372002    0.321375318209914    
  0.15712006913536833    0.27403886168230285    0.4004322101722189    0.3958740845888875    0.3491552911296056    
  0.349079438654731    0.3959416408352579    0.40047485657003695    0.27407400053692144    0.15689660633629085    
  0.15712006913536833    0.09749579621437991    0.157120062669689    0.3213752623109728    0.41508867520699744    
  0.37898486773705803    0.35070270377988    0.37898482807534206    0.4150885907208931    0.32137534129704337    
  0.15712005453178868    0.09749579621437991    0.2807043971559856    0.3272827166931594    0.3983984630985084    
  0.3810931009676975    0.31573985152814493    0.28707976738503677    0.31573981589467165    0.3810930427165245    
  0.39839857040371646    0.3272827440102596    0.2807043971559856    0.3272827202721299    0.327131583894527    
  0.38505176596785773    0.3974849019508813    0.33754334379247525    0.286306033158109    0.28633198014611344    
  0.3375166531394861    0.39748146951421404    0.38501701828149204    0.3272827202721299    0.3983985585644288    
  0.38505175983145906    0.3985597097718381    0.39744715749757825    0.3449234862838605    0.28513158675317973    
  0.2621321212819442    0.2851318105732016    0.3449479342174278    0.3974815309062095    0.3983985585644288    
  0.38109310837300325    0.3974849834570896    0.39744718368531073    0.3810060726727569    0.33752165866707695    
  0.28517002774020467    0.2530486992382636    0.2530604766541239    0.28513180896003604    0.33751668627471976    
  0.38109310837300325    0.3157398269103974    0.3375433521368719    0.3449234690833957    0.3375216078916311    
  0.3158332070867661    0.28631538852459987    0.2621040522506994    0.2530486921740508    0.26213206262303834    
  0.2863319626284352    0.3157398269103974    0.287079736542527    0.28630606159658534    0.28513159501067975    
  0.2851699983725233    0.2863154517346066    0.28699579960262717    0.28631542930871484    0.2851699883863088    
  0.28513163014542214    0.2863060750888545    0.287079736542527    0.31573986555341027    0.2863319713312248    
  0.2621321027369312    0.2530486523776334    0.2621040986892926    0.28631538219313113    0.3158332320713395    
  0.337521583514444    0.34492344692899235    0.33754332896120787    0.31573986555341027    0.3810931325743248    
  0.3375166791402796    0.28513180967685603    0.253060520994101    0.2530486895581184    0.28517003395042456    
  0.33752166797230504    0.3810060873758229    0.39744712204969324    0.39748499297570955    0.3810931325743248    
  0.3983985330322522    0.39748153434678934    0.34494790539499703    0.28513180280762956    0.26213210331611364    
  0.2851315873227504    0.344923532725406    0.3974471424548784    0.3985597145852897    0.38505172519192943    
  0.3983985330322522    0.3272826637652687    0.3850170225385522    0.397481525571693    0.33751666913771855    
  0.2863320235023808    0.28630602271677025    0.3375433559122308    0.3974849568027598    0.38505177155033155    
  0.3271316440314525    0.3272826637652687    0.2807043971559856    0.3272827166931594    0.3983984630985084    
  0.3810931009676975    0.31573985152814493    0.28707976738503677    0.31573981589467165    0.3810930427165245    
  0.39839857040371646    0.3272827440102596    0.2807043971559856    0.487892134517653    0.47530501752396676    
  0.41745182423642435    0.3224690368547373    0.24673494617527536    0.2204276017160245    0.2467349188037282    
  0.3224689823346073    0.41745194101356337    0.4753050606808993    0.487892134517653    0.4753050271626063    
  0.4752775988505565    0.43833508759287887    0.3562290642256776    0.26913979944558264    0.22035306745015915    
  0.22035690105420816    0.2691346072814393    0.356227784178997    0.4383298423520633    0.4753050271626063    
  0.4174519230551403    0.438335096568084    0.41747821967198273    0.3562255255185809    0.2778428098716744    
  0.22010327733130378    0.2003306798426421    0.2201037435898743    0.27784818441418774    0.356227836784404    
  0.4174519230551403    0.3224690642821677    0.3562291240806785    0.3562255366350788    0.3224552726359195    
  0.2691372813021161    0.2201088779856436    0.19300699945663038    0.19300685412734217    0.22010373833282418    
  0.26913463578049396    0.3224690642821677    0.24673492349221457    0.26913980391132614    0.277842803925296    
  0.2691372325185183    0.2467462475068079    0.220354318250664    0.20032576715289074    0.1930069843500879    
  0.20033063694704675    0.22035688055077657    0.24673492349221457    0.22042758755009653    0.22035310329562907    
  0.22010326866345203    0.2201088554536723    0.22035435323038868    0.2204175351817213    0.22035434188290573    
  0.2201088418587017    0.2201033058873181    0.22035309843866113    0.22042758755009653    0.24673495402797999    
  0.22035689534463232    0.2003306726761346    0.19300693385866935    0.20032581491241408    0.22035428258994186    
  0.24674626613710676    0.26913724493829705    0.277842763474596    0.2691397525696604    0.24673495402797999    
  0.32246904761841    0.2691346322940007    0.22010374752323195    0.19300689436229934    0.19300697792263133    
  0.22010887505726304    0.26913732961085823    0.32245528258269873    0.3562254890836335    0.35622915904345814    
  0.32246904761841    0.41745190502897805    0.35622785238253907    0.2778481303481621    0.2201037485963414    
  0.20033066339716285    0.22010327883772582    0.27784283017201633    0.3562255214577716    0.41747821676191843    
  0.4383350293194156    0.41745190502897805    0.47530497758984336    0.4383297944395414    0.35622783456705337    
  0.26913459876269885    0.220356926747651    0.22035305796582944    0.26913980065032916    0.3562291069015674    
  0.43833510289743904    0.47527765257806776    0.47530497758984336    0.487892134517653    0.47530501752396676    
  0.41745182423642435    0.3224690368547373    0.24673494617527536    0.2204276017160245    0.2467349188037282    
  0.3224689823346073    0.41745194101356337    0.4753050606808993    0.487892134517653    0.5360638507195168    
  0.4910619859322155    0.38269135234668566    0.27093677571910474    0.19868238496673704    0.17503384870999042    
  0.19868234086666164    0.27093675299912007    0.38269146057618997    0.49106203130332726    0.5360638507195168    
  0.49106204698807726    0.4910620811188449    0.41460014982461957    0.3067828057544112    0.21960071861475844    
  0.17549434648893042    0.17549397363410305    0.21960098028333172    0.3067770469342393    0.41460602789296236    
  0.49106204698807726    0.3826914039843176    0.41460011355176857    0.38269891646596416    0.3067761512291654    
  0.22802749948332424    0.17597435450348822    0.15865799454323556    0.1759744540721463    0.22803028462335675    
  0.3067770605786349    0.3826914039843176    0.27093683033521415    0.30678285733663785    0.3067761498429248    
  0.2709387056098772    0.21960182723507246    0.17597589417085216    0.1525425768662162    0.15254124174538128    
  0.17597444436356613    0.21960099284683676    0.27093683033521415    0.1986823680126239    0.21960067919250342    
  0.22802749657108165    0.21960179652206457    0.19868014098886524    0.17549507719045185    0.1586551955838173    
  0.15254256532194238    0.15865799678888437    0.17549397389546098    0.1986823680126239    0.17503386796836987    
  0.17549435949404174    0.17597430489063828    0.17597587456433955    0.17549508390299814    0.17503407890911457    
  0.17549506819313396    0.17597588835142336    0.17597437756422699    0.1754943661718959    0.17503386796836987    
  0.1986823704206448    0.17549396664430233    0.15865799289540716    0.15254254659224775    0.15865522082944572    
  0.17549505286604403    0.1986801334397132    0.21960177449034107    0.22802749151213508    0.2196006921833062    
  0.1986823704206448    0.2709368049914268    0.21960101603334614    0.1759744460209851    0.15254121390397055    
  0.15254257752982142    0.17597588972432424    0.21960184357843654    0.27093866867354405    0.3067761507443962    
  0.3067828333208678    0.2709368049914268    0.3826914378145356    0.30677707450696706    0.22803028664191524    
  0.17597444397251272    0.158657988594538    0.17597430959260404    0.22802754352848525    0.306776171130787    
  0.3826988841769714    0.4146000886618531    0.3826914378145356    0.4910620134036958    0.4146060426232613    
  0.30677706997598303    0.21960095986023154    0.17549401188446545    0.17549433976359077    0.21960068182604797    
  0.3067827988319634    0.4146000981888749    0.4910621649133492    0.4910620134036958    0.5360638507195168    
  0.4910619859322155    0.38269135234668566    0.27093677571910474    0.19868238496673704    0.17503384870999042    
  0.19868234086666164    0.27093675299912007    0.38269146057618997    0.49106203130332726    0.5360638507195168    
  0.5251927870620359    0.4755027731099096    0.3619318483137202    0.25152587336384963    0.18225436228791456    
  0.15969049743857783    0.18225433132650554    0.25152584940918854    0.36193192313732714    0.4755027995345328    
  0.5251927870620359    0.4755027793655885    0.47550643934523806    0.3945612731708422    0.28637955984461516    
  0.20234719586824873    0.1603205319525279    0.16031775397961542    0.2023498641573911    0.286373557181332    
  0.3945687515853991    0.4755027793655885    0.3619319325859206    0.39456122768054364    0.36193484292869466    
  0.2863748757740807    0.21050083960317448    0.16103992398685701    0.14455303898117206    0.16103950843658876    
  0.2105028164441983    0.2863736015545413    0.3619319325859206    0.2515259207649684    0.28637961455898325    
  0.28637489087621404    0.25153000093755795    0.202346631448544    0.16104436893705953    0.13880910376451988    
  0.13881389428709204    0.1610395116266994    0.20234986802097893    0.2515259207649684    0.18225435428119474    
  0.20234719240725613    0.21050081596583578    0.20234662723382046    0.18225485805839697    0.1603160944632064    
  0.14455404074451503    0.13880909795747318    0.14455304060187124    0.16031776290225586    0.18225435428119474    
  0.15969048621836318    0.16032056512569526    0.16103990190021591    0.1610443400243478    0.1603161124848937    
  0.1596962394977419    0.16031610467333993    0.16104434909953952    0.1610399387000102    0.1603205667270785    
  0.15969048621836318    0.1822543728342552    0.1603177619002048    0.14455304671882824    0.13880909309774464    
  0.14455405717231623    0.16031607348258564    0.18225482952074776    0.20234661467350637    0.21050077707419715    
  0.20234717268746186    0.1822543728342552    0.25152590356664845    0.20234989752332697    0.16103948217445233    
  0.13881388668866035    0.1388091052431343    0.1610443836580906    0.2023466364479698    0.2515299576147571    
  0.28637485940534163    0.2863796138427338    0.25152590356664845    0.36193194609588825    0.28637362394688265    
  0.21050278325908875    0.16103951157886054    0.14455305148618924    0.16103992364231878    0.2105008693742923    
  0.28637486321876465    0.36193477871636476    0.3945612038758114    0.36193194609588825    0.4755027718189262    
  0.39456872629066453    0.28637359572766935    0.20234983813867016    0.16031781621482963    0.160320547118057    
  0.20234718243352523    0.28637957312239015    0.39456123423483186    0.4755065507995428    0.4755027718189262    
  0.5251927870620359    0.4755027731099096    0.3619318483137202    0.25152587336384963    0.18225436228791456    
  0.15969049743857783    0.18225433132650554    0.25152584940918854    0.36193192313732714    0.4755027995345328    
  0.5251927870620359    0.5360638427873681    0.49106200798219485    0.38269136031811885    0.27093677931810184    
  0.19868237339728148    0.17503383048119595    0.19868234470074145    0.27093672439992184    0.3826914376755389    
  0.49106202458330384    0.5360638427873681    0.49106204766032974    0.4910620620904037    0.4146002070180671    
  0.30678281621922565    0.21960072721997134    0.1754943417730171    0.1754939573620114    0.21960098581930979    
  0.3067770385106223    0.41460602207521075    0.49106204766032974    0.38269140941964347    0.4146001073148988    
  0.38269888930738033    0.3067761643690502    0.2280275132004356    0.17597435836598657    0.15865798400994854    
  0.1759744681609199    0.22803027663314987    0.3067770775733035    0.38269140941964347    0.27093683966603443    
  0.3067828430923584    0.30677617579416555    0.2709387009869325    0.21960182664119282    0.1759758872214486    
  0.15254257818166056    0.15254122945586152    0.17597444846314414    0.21960096891001596    0.27093683966603443    
  0.1986823591633405    0.21960070074803797    0.22802749193915092    0.2196018089729175    0.19868014415241708    
  0.17549507185433189    0.15865518701130316    0.15254256570168753    0.15865799223153304    0.17549396655061936    
  0.1986823591633405    0.17503384881654196    0.175494347366447    0.1759742992165917    0.1759758597099984    
  0.1754950880753838    0.17503408231676434    0.175495057278026    0.17597589486674206    0.175974372340859    
  0.1754943678213517    0.17503384881654196    0.1986823603137793    0.17549396099767742    0.15865797839657303    
  0.15254254868522266    0.15865520663547608    0.1754950510911869    0.19868012268742227    0.21960177467533654    
  0.22802746133064522    0.21960068530427596    0.1986823603137793    0.2709368108009613    0.21960101642229152    
  0.17597443911543242    0.15254122124257966    0.1525425774548916    0.17597589743129616    0.219601839993143    
  0.27093866914978354    0.30677613096827394    0.3067828311444664    0.2709368108009613    0.38269142635771713    
  0.30677708691246885    0.22803027433450826    0.17597445428319688    0.15865800221612378    0.17597433090767384    
  0.22802753759571187    0.30677615025272637    0.38269889303430954    0.4146000971026634    0.38269142635771713    
  0.49106204903900413    0.41460603814896646    0.3067770967376726    0.2196009614412933    0.17549399828895726    
  0.17549434294435587    0.2196006990164316    0.3067827834448314    0.414600113153744    0.4910621754167935    
  0.49106204903900413    0.5360638427873681    0.49106200798219485    0.38269136031811885    0.27093677931810184    
  0.19868237339728148    0.17503383048119595    0.19868234470074145    0.27093672439992184    0.3826914376755389    
  0.49106202458330384    0.5360638427873681    0.48789211811104216    0.4753050005393251    0.41745183989564655    
  0.32246903499862645    0.24673494206204954    0.2204275908461174    0.2467349148683879    0.3224689838579229    
  0.4174519293426998    0.47530503695893456    0.48789211811104216    0.47530502558620585    0.4752776076136958    
  0.4383350801093651    0.356229067090826    0.2691397826275139    0.22035307645129593    0.22035688489940805    
  0.26913461047253906    0.35622776280641094    0.4383298236420701    0.47530502558620585    0.41745192642215406    
  0.4383350777042992    0.41747823463897876    0.35622549859242353    0.2778428177516481    0.2201032710796785    
  0.20033070142888093    0.22010374192886645    0.2778481645189629    0.3562278261097    0.41745192642215406    
  0.32246904471410137    0.3562291447817139    0.3562255234981156    0.32245528657040623    0.269137292782333    
  0.22010888486099897    0.19300699124715226    0.193006860812506    0.22010374600458105    0.26913462637670493    
  0.32246904471410137    0.24673492863732796    0.26913979584857406    0.27784280105526005    0.2691372431601607    
  0.24674626550632947    0.22035429719727856    0.20032577881217445    0.19300698485805556    0.20033064589805896    
  0.22035686687887004    0.24673492863732796    0.2204275682023783    0.22035311169083896    0.22010328018390485    
  0.22010885903288105    0.22035435401190018    0.22041754142849093    0.22035433888975312    0.22010886162827445    
  0.22010329374786156    0.22035312596299864    0.2204275682023783    0.2467349656938408    0.22035688345794863    
  0.20033068826583492    0.19300695095607312    0.20032581924512793    0.22035430354605193    0.2467462805497625    
  0.26913722233281234    0.27784276401906555    0.2691397666247745    0.2467349656938408    0.32246906360300237    
  0.26913463098289087    0.22010374442131805    0.19300690682045582    0.19300697105162112    0.2201088912158199    
  0.26913729812877873    0.3224553109748323    0.3562254601638962    0.3562291614555854    0.32246906360300237    
  0.41745191181384717    0.35622782408191483    0.2778481462275113    0.2201037369332896    0.20033067324125786    
  0.22010325036316525    0.2778428483339518    0.35622549342559595    0.4174782325652282    0.43833505186087507    
  0.41745191181384717    0.4753049497779149    0.4383298351194697    0.3562278182687709    0.26913461836395475    
  0.22035692153920922    0.220353067065713    0.26913978750301965    0.35622911401044    0.4383350840877701    
  0.4752776882182871    0.4753049497779149    0.48789211811104216    0.4753050005393251    0.41745183989564655    
  0.32246903499862645    0.24673494206204954    0.2204275908461174    0.2467349148683879    0.3224689838579229    
  0.4174519293426998    0.47530503695893456    0.48789211811104216    0.2807044038951183    0.32728272392898883    
  0.398398456445876    0.381093102515362    0.3157398468282674    0.2870797748860396    0.315739820628383    
  0.3810930167524599    0.39839855519197026    0.3272827338386131    0.2807044038951183    0.32728271385930446    
  0.3271315897241965    0.3850517709883515    0.3974848936668477    0.3375433727841551    0.2863060158026057    
  0.2863319826385329    0.3375166531670745    0.39748146503877435    0.38501702255609066    0.32728271385930446    
  0.39839855185044415    0.38505177567296706    0.39855968054784396    0.39744717689390613    0.34492348226934477    
  0.2851315958433212    0.26213210068384524    0.2851317999335501    0.3449479535057025    0.3974815335498899    
  0.39839855185044415    0.3810931214227797    0.39748496450157816    0.39744718571494947    0.3810060428200867    
  0.3375216673603468    0.2851700176770808    0.25304872152651    0.25306046551150796    0.2851318043450056    
  0.33751668598058887    0.3810931214227797    0.31573981431028364    0.33754336654131556    0.3449234891070441    
  0.3375215967191987    0.31583320012010135    0.2863154180210602    0.26210404321466246    0.25304868697804594    
  0.26213206108038645    0.2863319693888872    0.31573981431028364    0.287079748817222    0.2863060537318203    
  0.28513160743873955    0.2851699936128288    0.2863154586443729    0.28699581020273324    0.28631544146543836    
  0.2851699717537247    0.28513163839697625    0.28630605391264596    0.287079748817222    0.3157398646576089    
  0.2863319825143241    0.26213209284598216    0.25304864996003007    0.2621040927829164    0.2863153855255262    
  0.31583322882752507    0.33752161186681656    0.344923436264501    0.3375433282626202    0.3157398646576089    
  0.3810931301576598    0.33751667171916244    0.28513181901254675    0.2530605172545032    0.2530486829460264    
  0.28517002347610315    0.3375217123363396    0.3810060652624485    0.3974471440877753    0.3974849994047319    
  0.3810931301576598    0.3983985246895174    0.3974815361590757    0.3449478867606413    0.2851318189103999    
  0.26213207181771636    0.2851316092190304    0.3449235325081368    0.397447178958917    0.39855969014442233    
  0.3850517215133693    0.3983985246895174    0.3272826865147514    0.3850169841777727    0.3974815166122435    
  0.3375166363798598    0.2863320198076354    0.2863060067022752    0.3375433710709743    0.39748493206637575    
  0.3850517718157933    0.3271316298762417    0.3272826865147514    0.2807044038951183    0.32728272392898883    
  0.398398456445876    0.381093102515362    0.3157398468282674    0.2870797748860396    0.315739820628383    
  0.3810930167524599    0.39839855519197026    0.3272827338386131    0.2807044038951183    0.09749578820536935    
  0.15712005450028416    0.321375275538521    0.41508866587160315    0.3789848773588095    0.35070272284068527    
  0.37898481408781964    0.41508862033910293    0.3213753516130223    0.15712005840676077    0.09749578820536935    
  0.15712005992018394    0.15689655573640193    0.27407403138584413    0.4004748783356844    0.39594165564935163    
  0.3490794531405766    0.34915524874087905    0.3958740925892999    0.4004321503204785    0.27403885413739354    
  0.15712005992018394    0.32137530201716474    0.274073981938544    0.32172739753624313    0.4003631826360325    
  0.3993839341246169    0.346683695562566    0.3219013395229691    0.34667107512253714    0.39949121746869914    
  0.40043217837155365    0.32137530201716474    0.41508874586994554    0.400474933355413    0.40036318727839004    
  0.41487172880833134    0.3958697219475108    0.34681643083893554    0.311288488976632    0.31134289967116136    
  0.34667108467572394    0.39587413184680836    0.41508874586994554    0.37898485275538746    0.3959416226246197    
  0.39938396381750646    0.39586967334734185    0.37924836196170214    0.3491102595780321    0.3218019355438136    
  0.31128845961256785    0.32190135788255164    0.3491552553398153    0.37898485275538746    0.3507027470335879    
  0.3490794573720168    0.34668362184623513    0.34681639391875557    0.3491102701204146    0.3504631865404398    
  0.3491102531640798    0.3468163980320909    0.3466837276552439    0.3490794648001602    0.3507027470335879    
  0.37898485806341414    0.3491552359484667    0.32190133743577204    0.31128844026943037    0.32180197845488734    
  0.34911022772249306    0.3792483617767868    0.39586963718596785    0.3993839305648913    0.39594163864892123    
  0.37898485806341414    0.41508871170154626    0.39587414724277487    0.3466710801161019    0.31134285780293597    
  0.3112884894511236    0.3468164334685634    0.3958697568447889    0.41487168110825734    0.4003631891306295    
  0.4004749141237428    0.41508871170154626    0.32137532736432806    0.4004321780386718    0.39949120841392927    
  0.3466710756422064    0.32190132782442454    0.3466836386553209    0.39938403676507533    0.40036321023782157    
  0.3217273700236281    0.2740739773796549    0.32137532736432806    0.157120054754718    0.274038847209962    
  0.4004321793724032    0.3958740803708488    0.3491553054162672    0.34907943472761166    0.3959416015860656    
  0.4004748677497654    0.2740739787831637    0.15689660942366193    0.157120054754718    0.09749578820536935    
  0.15712005450028416    0.321375275538521    0.41508866587160315    0.3789848773588095    0.35070272284068527    
  0.37898481408781964    0.41508862033910293    0.3213753516130223    0.15712005840676077    0.09749578820536935    
  0.05035717565470337    0.10107574501576597    0.27988905404974157    0.4227069917866775    0.4049772890962639    
  0.37792523719487464    0.4049772328214351    0.42270693279973753    0.2798891139378464    0.10107575600873725    
  0.05035717565470337    0.10107573489263928    0.10088542772434794    0.22279138677718208    0.39193613723692483    
  0.41820122245699254    0.37573883320183216    0.37583192305564334    0.4181266031414818    0.39184902002465793    
  0.22278603204340044    0.10107573489263928    0.2798891149123119    0.22279134521741956    0.280284239387982    
  0.3917868324882348    0.41898293429328315    0.372433290459263    0.34753090783975266    0.372406837862524    
  0.41915290775744196    0.3918490807284641    0.2798891149123119    0.42270706025387966    0.3919362156088367    
  0.39178685805702973    0.42244858483249104    0.41810035805268625    0.3726265164221987    0.33628240190722036    
  0.33636991459259263    0.3724068501358541    0.41812662298710407    0.42270706025387966    0.4049772810510546    
  0.4182012527345747    0.4189829108174502    0.4181003412972469    0.40531698525544113    0.3757793945352873    
  0.3473834191857249    0.33628238370888053    0.3475309291102072    0.3758319332080056    0.4049772810510546    
  0.3779252113049311    0.37573889650368847    0.3724332374363944    0.3726264475604577    0.3757794201280764    
  0.37761255038210345    0.37577941578563884    0.37262644169030845    0.3724333170037045    0.37573889586514597    
  0.3779252113049311    0.40497729909100416    0.37583194137145964    0.34753091314427353    0.3362823712257135    
  0.347383461334167    0.3757793578284743    0.4053169591202663    0.4181003150194231    0.418982853131452    
  0.41820120648020154    0.40497729909100416    0.42270703269572496    0.41812666197193304    0.37240680289942785    
  0.33636990448126786    0.33628239649174174    0.37262652070493685    0.4181003504966577    0.4224485144266212    
  0.39178680516292497    0.3919362070334934    0.42270703269572496    0.2798891274961395    0.39184909287223413    
  0.4191528545774009    0.3724068407779648    0.3475309200525224    0.37243330278837133    0.41898299277465434    
  0.3917867997508135    0.2802841759931997    0.22279134546007742    0.2798891274961395    0.10107573594569903    
  0.2227860006017263    0.3918490733540219    0.41812657379684126    0.37583201972483377    0.37573886459912886    
  0.4182012055358396    0.3919361438136812    0.22279135447333856    0.10088547786922449    0.10107573594569903    
  0.05035717565470337    0.10107574501576597    0.27988905404974157    0.4227069917866775    0.4049772890962639    
  0.37792523719487464    0.4049772328214351    0.42270693279973753    0.2798891139378464    0.10107575600873725    
  0.05035717565470337    
  END_DATAGRID_3D    
  END_BLOCK_DATAGRID_3D    