#     DFTpy    
  CRYSTAL 
    
  PRIMVEC    
  1.0482171259644668    -1.8155653195342822    0.0    
  1.0482171259644668    1.8155653195342822    0.0    
  0.0    0.0    1.9730835119999997    
  PRIMCOORD    
  1    1    
  Si    0.0    0.0    0.0    
  BEGIN_BLOCK_DATAGRID_3D    
  3d_datagrid_density    
  BEGIN_DATAGRID_3D#0    
  9    9    9    
  0.0    0.0    0.0    
  1.0482171259644668    -1.8155653195342822    0.0    
  1.0482171259644668    1.8155653195342822    0.0    
  0.0    0.0    1.9730835119999997    
  0.053732536802284875    0.12063341143719611    0.3857783742979485    0.6568889085679556    0.7193352992278366    
  0.65688889643702    0.3857783940825657    0.12063343033703257    0.053732536802284875    0.12063342136800725    
  0.12024669682637107    0.2968720289535869    0.5828755272512145    0.7071588459690551    0.7069162049538359    
  0.5826789452595226    0.29684260887285    0.12063342136800725    0.3857783943642396    0.29687202378658806    
  0.38665569677033657    0.582524270822179    0.694458872872447    0.7072016300358167    0.6949234596556406    
  0.5826789479595438    0.3857783943642396    0.656888963538894    0.5828755247237972    0.5825241433389095    
  0.6562643976931172    0.706912351929408    0.7078385747136048    0.70720156794233    0.706916249236997    
  0.656888963538894    0.7193352606955907    0.7071588513964584    0.694458861131146    0.70691238107798    
  0.7201326052851058    0.7069122960348115    0.6944589235561646    0.7071588413252038    0.7193352606955907    
  0.6568889633255011    0.7069162236832258    0.707201531262954    0.7078387028168797    0.7069123286603891    
  0.6562642636529586    0.5825242548110184    0.5828755091904424    0.6568889633255011    0.38577838057304104    
  0.5826788482996894    0.6949233576601684    0.7072016538318752    0.6944588594278465    0.5825242467215674    
  0.38665577343833024    0.2968720465673897    0.38577838057304104    0.12063340828509403    0.29684264126689097    
  0.582678869460942    0.7069161996443777    0.7071588580940509    0.5828755381103927    0.2968720037109805    
  0.12024667534755532    0.12063340828509403    0.053732536802284875    0.12063341143719611    0.3857783742979485    
  0.6568889085679556    0.7193352992278366    0.65688889643702    0.3857783940825657    0.12063343033703257    
  0.053732536802284875    0.11515028992406533    0.19666388094081144    0.44143789767903574    0.6336503135410052    
  0.6661831836047248    0.6336502696997647    0.44143792868109105    0.19666386636848757    0.11515028992406533    
  0.19666391213917647    0.19622893080248385    0.36741373664109905    0.5863318885561281    0.6579953816621458    
  0.6578079081871417    0.5862249398328352    0.3673458611044281    0.19666391213917647    0.441437859884478    
  0.3674136863895922    0.44218415500674363    0.5860845763917306    0.6493441333924337    0.6486657925711985    
  0.6496384651592315    0.5862249955249121    0.441437859884478    0.6336502128686536    0.5863318985928626    
  0.5860844857837592    0.6331512716397512    0.6578255965409056    0.6490688935994262    0.6486657897318425    
  0.6578080464541803    0.6336502128686536    0.6661831335921132    0.6579954097937372    0.6493441093533368    
  0.6578256348056802    0.6667803879078756    0.6578256494617402    0.6493441818719061    0.657995400748879    
  0.6661831335921132    0.6336503333851388    0.6578079543949443    0.6486657527018526    0.6490690488100503    
  0.6578255585749985    0.6331511677196606    0.586084504243521    0.5863319054308211    0.6336503333851388    
  0.44143787023269154    0.5862248831404835    0.6496383922381029    0.6486658540188628    0.6493441336949929    
  0.5860845598589318    0.44218415471591294    0.3674137696622434    0.44143787023269154    0.1966638847718439    
  0.3673458956245514    0.5862249730064776    0.6578080171416669    0.6579953204461155    0.5863318214759748    
  0.3674137625109732    0.19622895284377306    0.1966638847718439    0.11515028992406533    0.19666388094081144    
  0.44143789767903574    0.6336503135410052    0.6661831836047248    0.6336502696997647    0.44143792868109105    
  0.19666386636848757    0.11515028992406533    0.38148524746242307    0.4448018387354537    0.5511325376179272    
  0.569046039723028    0.5502568910021766    0.5690459701326442    0.5511325359901675    0.4448018371630825    
  0.38148524746242307    0.4448018304303664    0.4445409903750699    0.5280313072376496    0.5712867951880575    
  0.5469225400841217    0.5468691089385875    0.5712625699108755    0.527982952145518    0.4448018304303664    
  0.551132547604685    0.5280313286601321    0.5514380746188599    0.5712110925644353    0.543406463041696    
  0.5203648444054845    0.543474420758438    0.5712625544548688    0.551132547604685    0.5690459827077923    
  0.5712868082086454    0.5712109820740815    0.5688717180537531    0.5468763255024427    0.5204628575006175    
  0.5203648199116402    0.5468691547507115    0.5690459827077923    0.5502569103952594    0.5469225546224998    
  0.5434064323033672    0.5468764230217819    0.5504489110855106    0.5468763038020578    0.5434065230817755    
  0.5469225991992823    0.5502569103952594    0.5690460382726462    0.5468691755805866    0.5203648538238409    
  0.5204630001943166    0.5468763421120041    0.5688716496904448    0.5712111003846686    0.5712868039952245    
  0.5690460382726462    0.5511325601615705    0.5712624419714182    0.5434744076485901    0.5203649147817823    
  0.5434064793027243    0.5712110912034376    0.5514381187248483    0.5280313551780301    0.5511325601615705    
  0.44480182259645    0.5279829014593106    0.5712624877318965    0.5468691855840107    0.5469225824248998    
  0.5712868172840886    0.5280312882667539    0.4445410150502494    0.44480182259645    0.38148524746242307    
  0.4448018387354537    0.5511325376179272    0.569046039723028    0.5502568910021766    0.5690459701326442    
  0.5511325359901675    0.4448018371630825    0.38148524746242307    0.7287472239763731    0.6978197155899387    
  0.6043068366910282    0.4955568398770116    0.44925830941486855    0.4955568372789391    0.6043069192452133    
  0.6978197213530054    0.7287472239763731    0.6978197767825892    0.6977874979796479    0.6335075758119526    
  0.5267333466381751    0.44758041334082077    0.4475799303887236    0.5267335483960601    0.6334950076038107    
  0.6978197767825892    0.6043068671218758    0.6335074794388655    0.6043393383992137    0.5267362377610944    
  0.44586725563701113    0.4130754510687317    0.44586336860248427    0.5267336050094434    0.6043068671218758    
  0.4955567571455115    0.5267334307946269    0.5267361398726844    0.4955372022299972    0.44757539548060066    
  0.41307956067597607    0.41307544497224236    0.44758006376175086    0.4955567571455115    0.44925816158659443    
  0.4475803972940381    0.44586725371555536    0.44757541179131183    0.44928530083041524    0.4475754307670221    
  0.44586730691815935    0.44758045629314586    0.44925816158659443    0.49555689457606106    0.44757997279920764    
  0.413075385380263    0.41307964489433113    0.44757539635507493    0.4955371892227815    0.5267361545509033    
  0.5267334022629726    0.49555689457606106    0.6043068782379982    0.5267334995749998    0.4458633351174332    
  0.4130755078577971    0.4458672574894449    0.5267362280212315    0.6043393693230301    0.633507613509905    
  0.6043068782379982    0.6978197395647074    0.6334950403307685    0.5267335517629796    0.447579988775401    
  0.44758038042942283    0.5267333450559946    0.6335076024056314    0.6977875319607111    0.6978197395647074    
  0.7287472239763731    0.6978197155899387    0.6043068366910282    0.4955568398770116    0.44925830941486855    
  0.4955568372789391    0.6043069192452133    0.6978197213530054    0.7287472239763731    0.8507729464410063    
  0.774405047101324    0.6068036169164128    0.4634931174596134    0.4112508737630302    0.4634930856687395    
  0.606803647124849    0.7744050752896574    0.8507729464410063    0.7744050279873705    0.7744109511570714    
  0.6528251231574499    0.5013737239116487    0.40998686994675765    0.4099931649988526    0.5013841030625128    
  0.6528080023342149    0.7744050279873705    0.6068036451024219    0.6528251320081637    0.6067897215104312    
  0.501390879416646    0.4087153041938301    0.3749158605869162    0.4086969814482856    0.5013841071040435    
  0.6068036451024219    0.46349315388651036    0.5013737439248813    0.5013907523503459    0.46349446936741173    
  0.4099874911003066    0.374904310385737    0.37491580214793246    0.4099931929583058    0.46349315388651036    
  0.4112508099173259    0.4099868656777818    0.4087152871002394    0.40998752501494745    0.41125850888991694    
  0.4099874621541221    0.4087153084330805    0.4099868621265784    0.4112508099173259    0.46349317873326223    
  0.40999316808345065    0.3749157688627346    0.37490439727955194    0.40998748127952095    0.4634943700175488    
  0.5013908363472068    0.5013737408886675    0.46349317873326223    0.6068036174997405    0.5013840136914406    
  0.40869691382654605    0.3749158586526897    0.4087152680607371    0.5013908557861364    0.6067898162614402    
  0.6528251862453742    0.6068036174997405    0.774405027495698    0.6528080374351967    0.5013840062652537    
  0.4099931538224505    0.4099868806749317    0.5013737446019382    0.6528250956660285    0.7744108839610276    
  0.774405027495698    0.8507729464410063    0.774405047101324    0.6068036169164128    0.4634931174596134    
  0.4112508737630302    0.4634930856687395    0.606803647124849    0.7744050752896574    0.8507729464410063    
  0.7287471718385868    0.6978197269838726    0.6043068895118092    0.49555684799145183    0.4492582620849131    
  0.49555680365924415    0.6043069029656061    0.6978197225365086    0.7287471718385868    0.6978197635089244    
  0.697787477608226    0.633507583550998    0.5267333880675928    0.44758044410614606    0.44757994763850295    
  0.5267335281442787    0.6334950012805769    0.6978197635089244    0.6043068330028749    0.6335075198327988    
  0.604339356646925    0.5267362351277461    0.44586726627345313    0.4130754776150809    0.445863337587173    
  0.526733607732448    0.6043068330028749    0.49555678196601627    0.5267333959521625    0.5267361483007722    
  0.49553725890468053    0.4475754106462457    0.41307955814298614    0.41307544647079203    0.44758004291637526    
  0.49555678196601627    0.44925820542298966    0.4475804356752641    0.44586724046914894    0.44757543820550455    
  0.4492852795991469    0.447575461909903    0.4458672946993028    0.44758044243731937    0.44925820542298966    
  0.49555688702662753    0.44757995379227883    0.4130754214802114    0.4130796317154178    0.4475753884555936    
  0.49553713601359295    0.5267361570827906    0.5267334238713418    0.49555688702662753    0.6043068335714822    
  0.5267334755431787    0.44586330183832457    0.4130755085311819    0.4458672472836858    0.526736202703738    
  0.6043393498962819    0.6335076195777033    0.6043068335714822    0.6978197562211895    0.6334950467536324    
  0.5267335873975513    0.4475799971879463    0.44758036357659386    0.526733315833255    0.6335076012378947    
  0.6977875258571028    0.6978197562211895    0.7287471718385868    0.6978197269838726    0.6043068895118092    
  0.49555684799145183    0.4492582620849131    0.49555680365924415    0.6043069029656061    0.6978197225365086    
  0.7287471718385868    0.38148523673964657    0.4448018315272203    0.5511325567585793    0.5690460336695117    
  0.5502568908116167    0.5690459887262145    0.5511325588080264    0.44480184689161206    0.38148523673964657    
  0.44480183332725615    0.4445409975388715    0.5280313271826991    0.571286785388788    0.5469225634624637    
  0.5468691105315935    0.5712625771003795    0.5279829414546959    0.44480183332725615    0.5511325682009677    
  0.528031326684584    0.551438078452427    0.5712111080019511    0.5434064467852913    0.5203648628572344    
  0.5434744369592108    0.5712625873276023    0.5511325682009677    0.5690459670345962    0.5712868256146931    
  0.571210981005297    0.5688717307647114    0.5468763391259082    0.5204628779542929    0.5203648267480929    
  0.54686915722508    0.5690459670345962    0.5502569180660598    0.5469225449547317    0.5434064202934535    
  0.5468764086144733    0.5504489162703213    0.546876300446359    0.5434065146550334    0.5469225792808297    
  0.5502569180660598    0.5690460251620483    0.5468691663260681    0.5203648660190512    0.5204629874139047    
  0.5468763420276344    0.5688716365751098    0.5712110968839242    0.5712868030243827    0.5690460251620483    
  0.5511325287709821    0.5712624347220924    0.5434744162181653    0.5203648942850816    0.5434064660271974    
  0.5712110550347982    0.5514381197257573    0.5280313321999476    0.5511325287709821    0.4448018225850674    
  0.527982891763257    0.5712625186438461    0.5468691661916443    0.5469225626986931    0.5712868011035603    
  0.5280312777741594    0.4445410065542326    0.4448018225850674    0.38148523673964657    0.4448018315272203    
  0.5511325567585793    0.5690460336695117    0.5502568908116167    0.5690459887262145    0.5511325588080264    
  0.44480184689161206    0.38148523673964657    0.11515029882664007    0.19666388003716953    0.44143790628668145    
  0.633650303755099    0.666183248399149    0.6336502677030746    0.44143793599032605    0.19666387745012423    
  0.11515029882664007    0.19666391917473638    0.19622893771894712    0.3674137265569466    0.5863318849853657    
  0.6579953291592371    0.6578079202911765    0.5862249425688597    0.3673458635211315    0.19666391917473638    
  0.4414378899675003    0.367413665504786    0.44218413585458716    0.5860845965631264    0.6493441216404056    
  0.6486658196009376    0.6496384903626626    0.5862250030322617    0.4414378899675003    0.633650199488777    
  0.5863319158192198    0.5860844716918866    0.6331512490768813    0.6578255758676121    0.649068927704118    
  0.6486657704026636    0.6578080948559474    0.633650199488777    0.6661830685724698    0.6579953479669924    
  0.6493441044239923    0.6578255802260814    0.6667804190621475    0.6578256373256108    0.6493441775858498    
  0.6579954076569167    0.6661830685724698    0.6336503198878535    0.6578079573264273    0.6486657379497657    
  0.6490690354898458    0.6578255566693049    0.63315119036579    0.586084484932799    0.5863319316423508    
  0.6336503198878535    0.441437876089815    0.5862248883612508    0.649638445755524    0.6486658181024202    
  0.6493441200203648    0.5860845624124656    0.44218416806309035    0.3674137515427564    0.441437876089815    
  0.1966638762860519    0.36734589832824716    0.5862249460209742    0.6578079744750318    0.6579953329233782    
  0.5863318425085223    0.36741374420230233    0.19622896129888945    0.1966638762860519    0.11515029882664007    
  0.19666388003716953    0.44143790628668145    0.633650303755099    0.666183248399149    0.6336502677030746    
  0.44143793599032605    0.19666387745012423    0.11515029882664007    0.053732536802284875    0.12063341143719611    
  0.3857783742979485    0.6568889085679556    0.7193352992278366    0.65688889643702    0.3857783940825657    
  0.12063343033703257    0.053732536802284875    0.12063342136800725    0.12024669682637107    0.2968720289535869    
  0.5828755272512145    0.7071588459690551    0.7069162049538359    0.5826789452595226    0.29684260887285    
  0.12063342136800725    0.3857783943642396    0.29687202378658806    0.38665569677033657    0.582524270822179    
  0.694458872872447    0.7072016300358167    0.6949234596556406    0.5826789479595438    0.3857783943642396    
  0.656888963538894    0.5828755247237972    0.5825241433389095    0.6562643976931172    0.706912351929408    
  0.7078385747136048    0.70720156794233    0.706916249236997    0.656888963538894    0.7193352606955907    
  0.7071588513964584    0.694458861131146    0.70691238107798    0.7201326052851058    0.7069122960348115    
  0.6944589235561646    0.7071588413252038    0.7193352606955907    0.6568889633255011    0.7069162236832258    
  0.707201531262954    0.7078387028168797    0.7069123286603891    0.6562642636529586    0.5825242548110184    
  0.5828755091904424    0.6568889633255011    0.38577838057304104    0.5826788482996894    0.6949233576601684    
  0.7072016538318752    0.6944588594278465    0.5825242467215674    0.38665577343833024    0.2968720465673897    
  0.38577838057304104    0.12063340828509403    0.29684264126689097    0.582678869460942    0.7069161996443777    
  0.7071588580940509    0.5828755381103927    0.2968720037109805    0.12024667534755532    0.12063340828509403    
  0.053732536802284875    0.12063341143719611    0.3857783742979485    0.6568889085679556    0.7193352992278366    
  0.65688889643702    0.3857783940825657    0.12063343033703257    0.053732536802284875    
  END_DATAGRID_3D    
  END_BLOCK_DATAGRID_3D    