#     DFTpy    
  CRYSTAL 
    
  PRIMVEC    
  2.4719999999999995    0.0    0.0    
  0.0    2.4719999999999995    0.0    
  0.0    0.0    2.4719999999999995    
  PRIMCOORD    
  2    1    
  Si    0.0    0.0    0.0    
  Si    1.2359999999999998    1.2359999999999998    1.2359999999999998    
  BEGIN_BLOCK_DATAGRID_3D    
  3d_datagrid_density    
  BEGIN_DATAGRID_3D#0    
  11    11    11    
  0.0    0.0    0.0    
  2.4719999999999995    0.0    0.0    
  0.0    2.4719999999999995    0.0    
  0.0    0.0    2.4719999999999995    
  0.0562003916658625    0.11375152517576842    0.32944910768257324    0.5276906859879792    0.5253856594501319    
  0.49278876880877287    0.5253855961442352    0.5276905735898296    0.32944910103654756    0.11375152783402684    
  0.0562003916658625    0.11375153750957825    0.18604467226376112    0.4009105132699769    0.5540434090542287    
  0.5324286398374727    0.4993010837257041    0.532428634200633    0.554043415191105    0.4009105758192643    
  0.18604468467448607    0.11375153750957825    0.329449111561369    0.400910525951359    0.5425006009649119    
  0.5884010529072415    0.5399177478985085    0.5097441298742764    0.5399176853178729    0.588401087572614    
  0.5425005752944522    0.4009105196682331    0.329449111561369    0.52769067347319    0.5540434106999811    
  0.5884010346642418    0.5727907552928173    0.5300265442529264    0.5097430163271418    0.5300265240460658    
  0.5727907134814031    0.588401081433685    0.5540434174477604    0.52769067347319    0.5253856292225251    
  0.5324286294745647    0.5399178366928621    0.5300265224339871    0.5095391140835436    0.4993022188696199    
  0.5095390826259973    0.5300264770614616    0.5399177442892673    0.5324286557901893    0.5253856292225251    
  0.4927887995198939    0.4993009561383448    0.5097440821218593    0.5097429940536988    0.4993021773300083    
  0.4927876529388634    0.4993021731721125    0.5097429413912037    0.5097441233506563    0.499301050235903    
  0.4927887995198939    0.5253856269533719    0.5324285901976137    0.5399177776160681    0.5300265070213265    
  0.5095391187098962    0.499302155940493    0.5095390718274563    0.5300264919514636    0.539917813820852    
  0.532428601070122    0.5253856269533719    0.5276907532085612    0.5540434260863764    0.588400989802147    
  0.5727906406766119    0.5300265875947509    0.5097429819644024    0.5300265233296115    0.5727907903698393    
  0.5884010423955767    0.5540434181226168    0.5276907532085612    0.3294490868057612    0.4009105498196535    
  0.5425006150636789    0.5884010146615114    0.5399177840249234    0.5097441245592335    0.539917725597272    
  0.5884010842171211    0.5425005727198244    0.4009105184244246    0.3294490868057612    0.11375154950540523    
  0.186044669572615    0.4009105653370513    0.5540433900116188    0.532428587183755    0.4993010074954944    
  0.5324285892275875    0.5540434050358776    0.40091058626867143    0.18604468969536242    0.11375154950540523    
  0.0562003916658625    0.11375152517576842    0.32944910768257324    0.5276906859879792    0.5253856594501319    
  0.49278876880877287    0.5253855961442352    0.5276905735898296    0.32944910103654756    0.11375152783402684    
  0.0562003916658625    0.11375152840543945    0.18604467719712517    0.4009105241036067    0.5540434995334251    
  0.5324286040058027    0.49930101872007576    0.532428583752606    0.5540433895896082    0.40091058494530085    
  0.18604466800672673    0.11375152840543945    0.18604470420177296    0.26523794554167895    0.46433385908419045    
  0.5769601711771039    0.5423422237818349    0.5095402765677957    0.5423423122387259    0.5769602049059783    
  0.46433388326352154    0.26523794117179733    0.18604470420177296    0.40091052836625846    0.4643338892177282    
  0.5807747748960023    0.6082880748233728    0.5586531654630198    0.5300253392182626    0.5586531268434756    
  0.6082880525450806    0.5807748176298646    0.46433385855942455    0.40091052836625846    0.5540434554709716    
  0.576960145848526    0.6082880479123255    0.5966937070158053    0.5586520481663823    0.5399189682747187    
  0.5586519670988815    0.596693853191289    0.6082880461609713    0.5769601363277769    0.5540434554709716    
  0.5324286663936009    0.5423422200928741    0.5586531802952254    0.5586519320033235    0.5423434365582298    
  0.5324275002327316    0.5423434387387855    0.5586519362158664    0.5586531276409246    0.5423423055749382    
  0.5324286663936009    0.4993010308125265    0.5095402411765249    0.5300253228557628    0.5399189974791485    
  0.5324274432409067    0.5253867696195575    0.5324274191332233    0.5399189406271879    0.5300253806647772    
  0.5095402703149091    0.4993010308125265    0.5324286618305359    0.5423422215766849    0.5586531644807834    
  0.5586519251559571    0.5423434127758842    0.532427441319884    0.542343357250226    0.5586519347733669    
  0.558653120078153    0.542342246005581    0.5324286618305359    0.5540434924422061    0.5769602079630741    
  0.6082879694253811    0.5966937292006984    0.5586520396678571    0.5399189973488062    0.5586519883585374    
  0.5966938799016757    0.6082881069941496    0.5769602065078564    0.5540434924422061    0.40091052935255184    
  0.4643338724449314    0.5807748209661323    0.6082880427754451    0.5586532008165898    0.5300254192443202    
  0.5586531204431631    0.608288099975318    0.5807747950843537    0.4643337956487626    0.40091052935255184    
  0.1860447180400479    0.26523794277705554    0.4643338593718098    0.5769601178436491    0.5423422381406852    
  0.5095402547257416    0.5423422339829954    0.5769601004080432    0.46433386605780463    0.2652379329563527    
  0.1860447180400479    0.11375152840543945    0.18604467719712517    0.4009105241036067    0.5540434995334251    
  0.5324286040058027    0.49930101872007576    0.532428583752606    0.5540433895896082    0.40091058494530085    
  0.18604466800672673    0.11375152840543945    0.3294491617729535    0.40091051346732864    0.542500628376314    
  0.5884010825257153    0.5399178276201659    0.5097441267089117    0.5399177525900888    0.5884010102480607    
  0.5425006428021901    0.4009105066530748    0.3294491617729535    0.4009106118600659    0.46433387109533675    
  0.5807747132813375    0.6082879749674719    0.5586531316003729    0.530025398799791    0.5586531650407637    
  0.6082880386328653    0.5807747486012749    0.4643339309032565    0.4009106118600659    0.5425005615099282    
  0.5807748191352716    0.6420881332394147    0.6421216707229155    0.596692530826421    0.5727918987769706    
  0.5966925405867368    0.6421217027788141    0.6420881362552399    0.5807746993350699    0.5425005615099282    
  0.5884010806311204    0.608288074635867    0.6421215219446428    0.6421203716084983    0.608289294517982    
  0.5883998575359267    0.6082892324445439    0.6421203626086505    0.6421216264556098    0.6082880212267285    
  0.5884010806311204    0.539917849549368    0.5586531490864245    0.5966925536073329    0.6082891918968728    
  0.576958994098977    0.5540445988865828    0.5769589151821977    0.6082892206568765    0.5966924933659078    
  0.5586531706704305    0.539917849549368    0.5097440954349933    0.5300254299938049    0.5727919233893879    
  0.5883999818017163    0.5540445743331338    0.527689544041348    0.5540446217744087    0.5883999089720129    
  0.5727919652569833    0.5300254042380591    0.5097440954349933    0.539917753684373    0.5586531797860752    
  0.5966926126160231    0.6082892773304633    0.576959022264009    0.554044613229706    0.5769590332944076    
  0.6082892243203147    0.5966925102734989    0.5586531208261024    0.539917753684373    0.588401025820794    
  0.6082880493246196    0.6421215461105886    0.6421203559259692    0.6082893437103666    0.5883998999069646    
  0.60828922051664    0.6421204286634168    0.6421215943845979    0.608288116882671    0.588401025820794    
  0.5425006138632027    0.5807747043798835    0.6420880902645402    0.6421215317663443    0.596692528540857    
  0.5727919342947362    0.5966924860175875    0.6421215602954019    0.6420881558470776    0.5807747768011153    
  0.5425006138632027    0.4009105477242106    0.46433381050498795    0.5807748514212119    0.6082880859797518    
  0.5586531057895125    0.5300254576213708    0.5586532159881532    0.6082879774738275    0.5807747931094606    
  0.464333846964215    0.4009105477242106    0.3294491617729535    0.40091051346732864    0.542500628376314    
  0.5884010825257153    0.5399178276201659    0.5097441267089117    0.5399177525900888    0.5884010102480607    
  0.5425006428021901    0.4009105066530748    0.3294491617729535    0.5276907302176297    0.5540434458824021    
  0.5884011081758116    0.5727907904488542    0.530026583485361    0.5097429626288238    0.5300264979907374    
  0.5727906993456798    0.5884011012963377    0.554043400780989    0.5276907302176297    0.5540435359804755    
  0.576960127324147    0.6082879902595001    0.5966937232885356    0.5586520170139831    0.539918958484375    
  0.558652003219135    0.596693691373194    0.6082880451095456    0.576960284025185    0.5540435359804755    
  0.5884010446613576    0.6082880363186509    0.6421216254263822    0.6421204338775854    0.6082892894721391    
  0.5883998536158549    0.6082892911068372    0.6421204371397217    0.6421216480093669    0.6082880062708588    
  0.5884010446613576    0.5727906739886727    0.5966937291183726    0.6421202747579836    0.6420893248815551    
  0.5807735826392701    0.5425017308879944    0.5807735449552153    0.6420894007665773    0.6421203710178287    
  0.5966937301097135    0.5727906739886727    0.530026589558292    0.5586519747760152    0.6082893187152805    
  0.5807735462389854    0.464334940205227    0.4009094747050443    0.46433489492529373    0.5807736164163533    
  0.6082892411734364    0.5586520111424996    0.530026589558292    0.5097430109439726    0.539918943473822    
  0.5883998828963105    0.5425018548533005    0.40090944909426107    0.32945010861634527    0.4009094992208693    
  0.5425018109183624    0.5883998706480064    0.5399189409601899    0.5097430109439726    0.5300265922990277    
  0.5586519944708856    0.6082892820782004    0.5807735627416306    0.4643349561633914    0.40090948113950486    
  0.46433496310662103    0.5807735863923648    0.6082892811335221    0.5586520000883424    0.5300265922990277    
  0.5727907494494215    0.5966937269065108    0.6421203252724019    0.6420894052711246    0.5807736489744222    
  0.5425017308592598    0.5807735699141173    0.6420894203150173    0.6421204348465489    0.5966937418730429    
  0.5727907494494215    0.5884010243938599    0.6082879923536028    0.6421215602239497    0.6421203591753832    
  0.6082892418000995    0.5883999450395978    0.608289214593751    0.6421203018618769    0.6421216198713008    
  0.6082880317356589    0.5884010243938599    0.5540434718002812    0.5769601500279958    0.6082881083004347    
  0.5966937324418662    0.5586519752454325    0.5399189801681014    0.558652015347793    0.5966937035692007    
  0.6082880731439978    0.5769601690975503    0.5540434718002812    0.5276907302176297    0.5540434458824021    
  0.5884011081758116    0.5727907904488542    0.530026583485361    0.5097429626288238    0.5300264979907374    
  0.5727906993456798    0.5884011012963377    0.554043400780989    0.5276907302176297    0.5253856716569582    
  0.5324285992752071    0.5399177915579294    0.5300265602735046    0.5095391076653782    0.49930218834620677    
  0.5095391319731276    0.530026494544765    0.5399178207505485    0.5324285941407721    0.5253856716569582    
  0.5324286764244939    0.5423422424390087    0.558653101916515    0.5586519457498506    0.5423434433387757    
  0.5324274804905411    0.5423434416292923    0.5586519734275783    0.5586532050373104    0.5423422395204012    
  0.5324286764244939    0.5399177608722924    0.5586531763654606    0.59669253490274    0.6082892929063735    
  0.5769589732016723    0.5540445693721445    0.5769589836436407    0.6082892812754263    0.5966926122646564    
  0.5586531967856992    0.5399177608722924    0.5300265401290979    0.5586519639729692    0.6082892093005741    
  0.5807735983293205    0.4643349907596623    0.40090955882550067    0.4643349021095052    0.5807736585802751    
  0.6082892438706624    0.5586519216020214    0.5300265401290979    0.5095391353298487    0.5423434078384751    
  0.5769590367112536    0.46433491768465124    0.2652370513868624    0.18604549960393096    0.2652370471329021    
  0.46433490291660984    0.5769589809988473    0.542343494656449    0.5095391353298487    0.49930213310672583    
  0.53242740876969    0.5540445866570434    0.40090953811714214    0.1860454646023667    0.11375086754064398    
  0.18604546327818766    0.4009095015464745    0.5540446082782199    0.5324274250113441    0.49930213310672583    
  0.5095391644186066    0.5423434209465564    0.5769590168247242    0.46433490977269903    0.2652370450555167    
  0.18604547665447402    0.26523703510130003    0.4643348639674081    0.5769589991054055    0.5423433712603745    
  0.5095391644186066    0.5300265576487451    0.5586520007021194    0.6082892084685761    0.580773623428533    
  0.46433495047968265    0.40090955379255944    0.4643349758179303    0.5807737235172314    0.6082892939072403    
  0.5586519437864147    0.5300265576487451    0.539917797006195    0.558653142117797    0.5966925761605733    
  0.6082892107401541    0.5769590107442029    0.5540447039763765    0.5769589644217318    0.6082893141818699    
  0.5966925450067178    0.5586530728284276    0.539917797006195    0.5324286384338993    0.5423422321901934    
  0.5586531708674835    0.5586519934353044    0.5423433672689297    0.5324274828160457    0.542343427360046    
  0.558651917427675    0.5586531738516166    0.5423422620210856    0.5324286384338993    0.5253856716569582    
  0.5324285992752071    0.5399177915579294    0.5300265602735046    0.5095391076653782    0.49930218834620677    
  0.5095391319731276    0.530026494544765    0.5399178207505485    0.5324285941407721    0.5253856716569582    
  0.49278885074061773    0.4993009973035167    0.509744109896051    0.5097429825694766    0.49930220693540733    
  0.49278764174401996    0.4993021490917795    0.5097428734860625    0.5097440981824476    0.4993009965615791    
  0.49278885074061773    0.49930106343513425    0.5095402344047113    0.5300253701245584    0.539918930621992    
  0.5324274677217741    0.5253868406129896    0.5324274371394706    0.539918926964296    0.530025431234185    
  0.5095402238977873    0.49930106343513425    0.509744117498503    0.5300253779920114    0.572791914890139    
  0.5883998486639422    0.5540445909779325    0.5276895384641512    0.5540445547904964    0.5883998957466786    
  0.5727918836389948    0.5300253574488033    0.509744117498503    0.5097429801896228    0.5399189479279599    
  0.5883998409279438    0.542501787849506    0.40090948485244743    0.3294501216852203    0.40090949314319996    
  0.5425017646484285    0.5883998621586718    0.5399189239900497    0.5097429801896228    0.499302146811822    
  0.5324274630188949    0.5540446589307757    0.4009094837471246    0.18604546245414058    0.1137508944824177    
  0.18604545823221458    0.4009094513504578    0.5540445946874681    0.5324274814281442    0.499302146811822    
  0.492787641523213    0.5253867228349121    0.527689468180991    0.32945011443230177    0.1137508775231177    
  0.0562008816837227    0.11375088348446027    0.3294500653516384    0.5276895154054524    0.5253868094541833    
  0.492787641523213    0.4993021413762562    0.5324274110360648    0.5540446064595744    0.40090946756270757    
  0.1860454823715453    0.11375088303752691    0.18604544257270522    0.4009094629050538    0.5540446408943532    
  0.5324274590454544    0.4993021413762562    0.5097430322913903    0.5399189134938978    0.5883997856430632    
  0.5425016761662124    0.400909535267764    0.32945009138411274    0.4009094776917889    0.5425018019722624    
  0.5883998334773615    0.5399189441793376    0.5097430322913903    0.5097440759533425    0.5300254115573485    
  0.572791917603225    0.588399831102941    0.5540446117454585    0.5276895342252058    0.5540445454037902    
  0.588399883317873    0.5727918625154647    0.5300253872099004    0.5097440759533425    0.4993010602361447    
  0.5095402132360823    0.5300254270793638    0.5399189156871982    0.53242741467882    0.5253868005419204    
  0.5324274163744521    0.5399189240892736    0.5300254391677456    0.5095402440997489    0.4993010602361447    
  0.49278885074061773    0.4993009973035167    0.509744109896051    0.5097429825694766    0.49930220693540733    
  0.49278764174401996    0.4993021490917795    0.5097428734860625    0.5097440981824476    0.4993009965615791    
  0.49278885074061773    0.5253856230634362    0.5324285814856873    0.5399177327552999    0.5300266258837235    
  0.5095390812644762    0.499302175918257    0.5095390663879542    0.5300265216387416    0.5399178145727046    
  0.5324285902408038    0.5253856230634362    0.5324286552474525    0.5423422452812696    0.5586531631739495    
  0.5586519531897738    0.5423434016752104    0.5324274514298607    0.5423434577599359    0.5586520010551814    
  0.5586531732534931    0.5423422670477411    0.5324286552474525    0.5399177469241097    0.5586531749282029    
  0.5966925738361311    0.6082892749180219    0.576958999649407    0.5540445732822697    0.5769589613192129    
  0.6082892704385726    0.5966925620682308    0.558653176001832    0.5399177469241097    0.5300265533993608    
  0.558651932153084    0.6082892448677133    0.5807735592306296    0.4643349880916117    0.4009095274326307    
  0.464334942093093    0.5807736825218163    0.6082892515229147    0.5586519323389156    0.5300265533993608    
  0.5095391452879336    0.542343391002909    0.5769590373917817    0.4643349104953547    0.2652370479261119    
  0.1860454945049571    0.2652370486363745    0.4643349141447717    0.5769589786214917    0.5423434790850081    
  0.5095391452879336    0.49930216866118243    0.5324274111635755    0.5540445693394949    0.40090955566815617    
  0.18604546305217645    0.11375086754705734    0.18604546801254981    0.40090949302660756    0.5540445611771533    
  0.532427440976167    0.49930216866118243    0.5095391702095212    0.5423433738700291    0.5769589913675597    
  0.4643349184739422    0.2652370502359895    0.1860454806773659    0.26523702548057004    0.46433490798440974    
  0.5769589503491115    0.542343404460443    0.5095391702095212    0.5300265902582311    0.5586519916805212    
  0.6082891824515342    0.5807735778450701    0.4643349868815773    0.4009095498224035    0.46433496548792336    
  0.5807737046217628    0.6082893220613843    0.5586519809252387    0.5300265902582311    0.5399177631206573    
  0.5586531482322944    0.596692579721988    0.6082892816628275    0.5769590388866447    0.5540446410410469    
  0.576958989655969    0.6082893071343102    0.5966925699770018    0.5586530981746914    0.5399177631206573    
  0.5324286570624613    0.5423422456286606    0.5586531491389667    0.5586519123806248    0.5423434032485175    
  0.5324274460221685    0.5423434101119277    0.5586518931792462    0.558653169113608    0.5423422326383626    
  0.5324286570624613    0.5253856230634362    0.5324285814856873    0.5399177327552999    0.5300266258837235    
  0.5095390812644762    0.499302175918257    0.5095390663879542    0.5300265216387416    0.5399178145727046    
  0.5324285902408038    0.5253856230634362    0.5276907408153936    0.554043405256788    0.5884010873121083    
  0.5727907465558738    0.5300265993202291    0.5097429812476812    0.530026525746113    0.572790679985484    
  0.5884011021141474    0.5540433925939657    0.5276907408153936    0.5540435011616244    0.5769601760886187    
  0.6082879720197755    0.5966936876524022    0.5586519453708587    0.5399189533960013    0.5586519870298371    
  0.5966937291980509    0.6082880202784184    0.5769602862750858    0.5540435011616244    0.5884010432533305    
  0.608288067106982    0.6421216043662158    0.642120438045151    0.6082892402451592    0.5883998350908167    
  0.608289264890617    0.6421204733550953    0.6421216151696821    0.6082879887343742    0.5884010432533305    
  0.5727907249378017    0.5966937444884737    0.6421202878278716    0.6420893384533657    0.580773618309534    
  0.542501751655832    0.5807735780354225    0.6420893435062018    0.6421203957847803    0.5966937265600853    
  0.5727907249378017    0.5300265954336806    0.558651977003052    0.6082892689465805    0.580773541286823    
  0.46433491616207806    0.40090949788316055    0.46433488274746737    0.5807735437777296    0.6082892403806273    
  0.5586520201410857    0.5300265954336806    0.5097429497111974    0.5399189864038033    0.5883998976377081    
  0.5425018558872358    0.4009094743884832    0.3294501246716267    0.40090950649512774    0.5425017926947134    
  0.5883999020991574    0.5399189335456918    0.5097429497111974    0.5300265184850897    0.5586520023021059    
  0.6082893041733425    0.5807735974345469    0.4643349548671987    0.40090949188272573    0.4643349686223489    
  0.580773555227845    0.6082892187713577    0.5586519311494702    0.5300265184850897    0.5727906984439407    
  0.5966937213843958    0.6421203214004301    0.6420893514731784    0.580773658225452    0.5425017653332816    
  0.580773556995577    0.6420894038440176    0.6421203700709296    0.5966937845736262    0.5727906984439407    
  0.588401089772583    0.608287993173376    0.6421215742105504    0.642120319198161    0.608289244700849    
  0.5883999009190021    0.6082892372306217    0.642120359905283    0.64212163994765    0.6082880517751188    
  0.588401089772583    0.5540434509892427    0.5769601499464081    0.6082881396575686    0.5966937772324323    
  0.5586519239548721    0.5399190133976098    0.5586520360151878    0.5966936754355525    0.6082880489684444    
  0.5769601917572799    0.5540434509892427    0.5276907408153936    0.554043405256788    0.5884010873121083    
  0.5727907465558738    0.5300265993202291    0.5097429812476812    0.530026525746113    0.572790679985484    
  0.5884011021141474    0.5540433925939657    0.5276907408153936    0.32944914633505296    0.4009105337690585    
  0.5425006428494665    0.5884011422052801    0.5399178099040177    0.5097440967550951    0.5399177155347067    
  0.5884010425927458    0.5425006173639033    0.4009105100519032    0.32944914633505296    0.40091062951460354    
  0.4643338124266521    0.5807747290257977    0.608288016874715    0.5586532149246967    0.5300254021133487    
  0.5586531616405286    0.6082879877820854    0.5807747699250788    0.46433394165266034    0.40091062951460354    
  0.5425005698970626    0.5807747821012152    0.6420881481450698    0.6421216500759765    0.5966925694381069    
  0.5727918873126324    0.5966925640545048    0.6421216535161404    0.6420881550018019    0.5807747396672583    
  0.5425005698970626    0.5884010285083645    0.6082880534185809    0.6421215143385209    0.6421203405941355    
  0.6082892532045537    0.5883998607182485    0.608289204639476    0.6421204239042909    0.6421215768549393    
  0.6082880387358014    0.5884010285083645    0.5399178020530239    0.5586531343032752    0.5966925690815383    
  0.6082892081010491    0.5769589915799387    0.5540445874177947    0.5769589632264642    0.6082892763550766    
  0.5966925113486056    0.558653201241993    0.5399178020530239    0.5097441405779106    0.5300254098341168    
  0.5727919354516279    0.5883999590922754    0.5540445746864032    0.5276895373863089    0.5540446225145567    
  0.5883999482746124    0.5727919148870892    0.5300254143501845    0.5097441405779106    0.5399178155556026    
  0.5586531635464408    0.5966925729970571    0.6082892505200711    0.5769590031252646    0.5540445924377441    
  0.5769590198667632    0.6082892456837147    0.5966925866813328    0.5586531731718332    0.5399178155556026    
  0.5884011000665594    0.6082880415005617    0.6421215517783022    0.6421204087446488    0.6082893184054705    
  0.5883998396136092    0.608289236739761    0.6421204456080658    0.6421216514300156    0.6082880566493467    
  0.5884011000665594    0.5425005645566474    0.5807747396880255    0.642088083155503    0.6421215812208196    
  0.596692502243331    0.5727919505527265    0.5966925198388158    0.6421214994408876    0.64208812879189    
  0.5807747761210548    0.5425005645566474    0.40091057378768286    0.464333822708101    0.5807748333103044    
  0.6082880504470514    0.5586531535845948    0.5300254095090573    0.5586531931945131    0.6082880010280087    
  0.5807748188260287    0.4643338287899606    0.40091057378768286    0.32944914633505296    0.4009105337690585    
  0.5425006428494665    0.5884011422052801    0.5399178099040177    0.5097440967550951    0.5399177155347067    
  0.5884010425927458    0.5425006173639033    0.4009105100519032    0.32944914633505296    0.11375154526172086    
  0.18604467415078513    0.40091054426161016    0.5540434403701782    0.5324286166695575    0.49930102809055105    
  0.5324286389487701    0.5540433794394478    0.40091056821359694    0.1860446561156284    0.11375154526172086    
  0.18604471878237552    0.26523794745197116    0.4643338052327846    0.5769601418286799    0.5423422633506603    
  0.5095402900002967    0.5423422934796169    0.5769601626661269    0.46433389663727415    0.2652379464473358    
  0.18604471878237552    0.40091051878216794    0.46433388226079625    0.5807747685369159    0.6082880778562613    
  0.5586531128875137    0.5300253624378958    0.558653122883462    0.6082880426851189    0.5807748405341405    
  0.464333899807506    0.40091051878216794    0.5540434326205012    0.576960158913311    0.6082880194560193    
  0.5966937507136287    0.5586520186237491    0.5399190227596653    0.558651937731398    0.5966937972873336    
  0.6082880433691279    0.5769601231974639    0.5540434326205012    0.5324286292328224    0.5423422126775106    
  0.5586531936086886    0.5586519486315347    0.5423434112405704    0.53242748319798    0.5423434216032231    
  0.5586519121033046    0.5586531071927541    0.5423423243042934    0.5324286292328224    0.49930098722787636    
  0.5095402360539474    0.5300253759310557    0.5399189870849579    0.5324274366430467    0.5253867785024092    
  0.5324274224180953    0.5399189442081515    0.5300253966464775    0.5095402418941785    0.49930098722787636    
  0.5324286664830632    0.5423422782153793    0.5586531705665257    0.558651926457517    0.5423434382198878    
  0.5324274475551882    0.5423433725990835    0.5586518926747073    0.5586531607949786    0.5423421998293411    
  0.5324286664830632    0.554043465664284    0.5769601888661621    0.6082880222853234    0.5966937516001469    
  0.5586519962274284    0.5399189998870241    0.5586519932165673    0.5966938495963804    0.6082880773312327    
  0.5769601558965178    0.554043465664284    0.4009105447203066    0.46433386618732103    0.5807748220417153    
  0.6082880086559426    0.5586531504161445    0.5300254573137868    0.558653118668719    0.6082881039886356    
  0.5807747781864964    0.46433379124482954    0.4009105447203066    0.18604470416517668    0.26523793255385375    
  0.46433388624423183    0.576960222431196    0.5423422087093064    0.5095403012747364    0.5423422586436306    
  0.5769601194750186    0.46433389946851283    0.2652379490790047    0.18604470416517668    0.11375154526172086    
  0.18604467415078513    0.40091054426161016    0.5540434403701782    0.5324286166695575    0.49930102809055105    
  0.5324286389487701    0.5540433794394478    0.40091056821359694    0.1860446561156284    0.11375154526172086    
  0.0562003916658625    0.11375152517576842    0.32944910768257324    0.5276906859879792    0.5253856594501319    
  0.49278876880877287    0.5253855961442352    0.5276905735898296    0.32944910103654756    0.11375152783402684    
  0.0562003916658625    0.11375153750957825    0.18604467226376112    0.4009105132699769    0.5540434090542287    
  0.5324286398374727    0.4993010837257041    0.532428634200633    0.554043415191105    0.4009105758192643    
  0.18604468467448607    0.11375153750957825    0.329449111561369    0.400910525951359    0.5425006009649119    
  0.5884010529072415    0.5399177478985085    0.5097441298742764    0.5399176853178729    0.588401087572614    
  0.5425005752944522    0.4009105196682331    0.329449111561369    0.52769067347319    0.5540434106999811    
  0.5884010346642418    0.5727907552928173    0.5300265442529264    0.5097430163271418    0.5300265240460658    
  0.5727907134814031    0.588401081433685    0.5540434174477604    0.52769067347319    0.5253856292225251    
  0.5324286294745647    0.5399178366928621    0.5300265224339871    0.5095391140835436    0.4993022188696199    
  0.5095390826259973    0.5300264770614616    0.5399177442892673    0.5324286557901893    0.5253856292225251    
  0.4927887995198939    0.4993009561383448    0.5097440821218593    0.5097429940536988    0.4993021773300083    
  0.4927876529388634    0.4993021731721125    0.5097429413912037    0.5097441233506563    0.499301050235903    
  0.4927887995198939    0.5253856269533719    0.5324285901976137    0.5399177776160681    0.5300265070213265    
  0.5095391187098962    0.499302155940493    0.5095390718274563    0.5300264919514636    0.539917813820852    
  0.532428601070122    0.5253856269533719    0.5276907532085612    0.5540434260863764    0.588400989802147    
  0.5727906406766119    0.5300265875947509    0.5097429819644024    0.5300265233296115    0.5727907903698393    
  0.5884010423955767    0.5540434181226168    0.5276907532085612    0.3294490868057612    0.4009105498196535    
  0.5425006150636789    0.5884010146615114    0.5399177840249234    0.5097441245592335    0.539917725597272    
  0.5884010842171211    0.5425005727198244    0.4009105184244246    0.3294490868057612    0.11375154950540523    
  0.186044669572615    0.4009105653370513    0.5540433900116188    0.532428587183755    0.4993010074954944    
  0.5324285892275875    0.5540434050358776    0.40091058626867143    0.18604468969536242    0.11375154950540523    
  0.0562003916658625    0.11375152517576842    0.32944910768257324    0.5276906859879792    0.5253856594501319    
  0.49278876880877287    0.5253855961442352    0.5276905735898296    0.32944910103654756    0.11375152783402684    
  0.0562003916658625    
  END_DATAGRID_3D    
  END_BLOCK_DATAGRID_3D    