#     DFTpy    
  CRYSTAL 
    
  PRIMVEC    
  1.1024352531695254    -1.9094738705446763    0.0    
  1.1024352531695254    1.9094738705446763    0.0    
  0.0    0.0    2.0751395557241374    
  PRIMCOORD    
  1    1    
  Si    0.0    0.0    0.0    
  BEGIN_BLOCK_DATAGRID_3D    
  3d_datagrid_density    
  BEGIN_DATAGRID_3D#0    
  11    11    9    
  0.0    0.0    0.0    
  1.1024352531695254    -1.9094738705446763    0.0    
  1.1024352531695254    1.9094738705446763    0.0    
  0.0    0.0    2.0751395557241374    
  0.051236956496206625    0.09185592577945031    0.2558020035559993    0.48865539833768046    0.5990177381156654    
  0.6119523278139359    0.5990177146059302    0.48865535068101235    0.2558020110888867    0.09185592756126457    
  0.051236956496206625    0.09185592579380135    0.09189516571724005    0.1977959900643541    0.4118601799880881    
  0.5713544770823662    0.606293890449636    0.6062808734597446    0.5713778656960194    0.4118040215922061    
  0.1978438582436927    0.09185592579380135    0.2558019978737256    0.19779600373843004    0.2557792339595213    
  0.4118355967388321    0.5548468404407753    0.5962985110616535    0.5943955509634626    0.5962837639122804    
  0.5548986117524353    0.4118039642164779    0.2558019978737256    0.4886554433633627    0.4118601778770489    
  0.4118355822543538    0.48869938895407333    0.5713517597160335    0.5963288663541186    0.5860911375177613    
  0.5861040811730953    0.5962838655404163    0.5713778593089144    0.4886554433633627    0.599017678663515    
  0.5713544597692202    0.5548468254799405    0.5713517173636697    0.5989810301680838    0.6063003339486521    
  0.5943545146993441    0.586091195763307    0.5943956187951316    0.6062808674909165    0.599017678663515    
  0.6119523866931668    0.6062938569286634    0.5962986033510074    0.5963289296558071    0.6063004020528011    
  0.6119683770582711    0.6063003443732081    0.5963288961982499    0.5962984948081261    0.6062939513491493    
  0.6119523866931668    0.5990177077451035    0.6062809458032753    0.5943955271678999    0.586091182517953    
  0.5943545630612695    0.6063003458604269    0.5989810143930819    0.5713517094278261    0.5548468843190693    
  0.5713544941845552    0.5990177077451035    0.48865544977281583    0.5713778306686218    0.5962837432267746    
  0.5861040688263822    0.5860911974695401    0.5963288553498937    0.5713516388383982    0.48869934008499477    
  0.41183558321482305    0.41186016234528044    0.48865544977281583    0.25580198113041336    0.41180396320163776    
  0.5548985743916092    0.5962838425247624    0.5943956712872471    0.5962984481648251    0.554846814276347    
  0.41183560856406526    0.2557792544488125    0.1977960033743565    0.25580198113041336    0.09185592400658915    
  0.19784386261659037    0.4118039637606896    0.571377879269544    0.6062809484224573    0.6062939403020303    
  0.5713544969551373    0.4118601609258616    0.19779599380520163    0.0918951671898376    0.09185592400658915    
  0.051236956496206625    0.09185592577945031    0.2558020035559993    0.48865539833768046    0.5990177381156654    
  0.6119523278139359    0.5990177146059302    0.48865535068101235    0.2558020110888867    0.09185592756126457    
  0.051236956496206625    0.11499770282008911    0.16648097447103133    0.3277476364399438    0.502205732567043    
  0.5616532864981157    0.561789331338876    0.5616533281541355    0.5022057175294403    0.32774765394047056    
  0.16648098387413318    0.11499770282008911    0.16648096212716565    0.166489963915271    0.2758583343815921    
  0.4496438457853261    0.5487025601046884    0.5575304220389264    0.5575333226459446    0.5487083021629945    
  0.4496071157107273    0.2758889067063588    0.16648096212716565    0.3277475987612875    0.2758583417428135    
  0.3277646603910336    0.4496193608738849    0.5390175915087948    0.550028885971782    0.5415031142861361    
  0.5500183373763784    0.5390566437247678    0.4496070894083157    0.3277475987612875    0.5022057424120363    
  0.44964383752972903    0.44961934615229066    0.5022069524308934    0.5486948076837974    0.5500558184721401    
  0.5327424844791618    0.532754170012438    0.5500183888287657    0.5487083342191362    0.5022057424120363    
  0.5616532563459855    0.5487024594746188    0.5390175817301727    0.5486947689303884    0.5616639291610918    
  0.5575409281661313    0.5414697903102439    0.5327424875184117    0.541503161144007    0.5575333627878982    
  0.5616532563459855    0.56178936399318    0.5575304142713856    0.5500289708443372    0.5500558483144653    
  0.5575410002811653    0.5617634095150095    0.5575409081041478    0.5500558683553585    0.5500288626910715    
  0.5575304622429146    0.56178936399318    0.561653283766968    0.5575332983587511    0.5415030545267189    
  0.5327424953993553    0.5414698504966795    0.5575408679849607    0.5616639091117368    0.5486948168549243    
  0.5390176865562932    0.5487025052520992    0.561653283766968    0.5022057111837347    0.5487082953243129    
  0.5500183109882546    0.532754163287293    0.5327424836232915    0.550055804668342    0.5486947187012503    
  0.5022069614537773    0.44961930668455574    0.44964382508900735    0.5022057111837347    0.32774757498199697    
  0.44960711484072546    0.539056563992661    0.5500183884714251    0.5415031978656972    0.5500288225624956    
  0.5390175322047615    0.44961936653912077    0.3277647338407774    0.2758583554048312    0.32774757498199697    
  0.1664809542069591    0.27588891168584867    0.44960709728807424    0.5487082806532969    0.5575333629775262    
  0.5575304369202175    0.5487025411031331    0.4496438793829521    0.27585837442721767    0.16648997851672412    
  0.1664809542069591    0.11499770282008911    0.16648097447103133    0.3277476364399438    0.502205732567043    
  0.5616532864981157    0.561789331338876    0.5616533281541355    0.5022057175294403    0.32774765394047056    
  0.16648098387413318    0.11499770282008911    0.3819628983730088    0.418662733303171    0.4864533653081798    
  0.5044866180949217    0.47131244657362564    0.4504506964483866    0.4713124381733153    0.5044865717878227    
  0.48645339461670595    0.4186627422476828    0.3819628983730088    0.4186627429803816    0.4186400269351883    
  0.47015145594686586    0.5053424499598111    0.48371199257365993    0.4490588348563772    0.4490608032571735    
  0.48371218199807064    0.5053347801224527    0.4701545342713989    0.4186627429803816    0.4864533943725417    
  0.470151468235042    0.48648236198641737    0.505329941849994    0.4864957319345507    0.4464924711297402    
  0.42744291143195773    0.44649111539442365    0.4865015128892703    0.5053347444181117    0.4864533943725417    
  0.5044866549975431    0.5053424626529378    0.5053299075651918    0.5044734016277771    0.48370915935649733    
  0.44650018099235045    0.4184882129113031    0.4184915172911701    0.44649114425370307    0.48371215588258304    
  0.5044866549975431    0.47131243031818065    0.4837119501935948    0.4864957310987298    0.48370916665097213    
  0.4713308388857495    0.4490615607771178    0.42743521258879336    0.41848825897719694    0.42744297129541114    
  0.4490608151733125    0.47131243031818065    0.45045073999040663    0.44905886616338686    0.44649247465158903    
  0.4465002312256214    0.44906157693065746    0.45042978457135163    0.44906154236564694    0.44650023985740794    
  0.4464924229981004    0.4490588948818974    0.45045073999040663    0.4713124326807298    0.4490608447032356    
  0.42744286872091136    0.41848824825742276    0.4274352222333783    0.44906154673463855    0.4713308294592291    
  0.48370915982793067    0.4864957667437272    0.48371198401747467    0.4713124326807298    0.5044866280820747    
  0.48371214746217184    0.4464910945752054    0.4184915124609562    0.41848824384112293    0.44650023937838607    
  0.48370911593797833    0.5044733769466523    0.5053299347926163    0.5053424318944088    0.5044866280820747    
  0.4864533869368199    0.5053347383749993    0.4865014708543691    0.44649121513866746    0.42744296399231846    
  0.4464924359987919    0.4864957340323365    0.5053299387424248    0.48648243386343987    0.4701514951400532    
  0.4864533869368199    0.4186627122431181    0.4701545717342029    0.5053347497133747    0.4837121316894001    
  0.44906088846464925    0.4490588820119598    0.48371197424186685    0.5053424473392888    0.47015150242157216    
  0.4186400495515375    0.4186627122431181    0.3819628983730088    0.418662733303171    0.4864533653081798    
  0.5044866180949217    0.47131244657362564    0.4504506964483866    0.4713124381733153    0.5044865717878227    
  0.48645339461670595    0.4186627422476828    0.3819628983730088    0.6820841159571318    0.6548174722229995    
  0.5742125587863529    0.46821579372815714    0.3854358101008566    0.3554168099520693    0.38543582801285337    
  0.4682157890094757    0.5742125504509649    0.6548174883077027    0.6820841159571318    0.6548174970613206    
  0.6548234252162811    0.600001053743531    0.5044454994586184    0.4101071450364977    0.3552684431484696    
  0.3552676468897807    0.4101081277322261    0.5044442339034207    0.6000034703792604    0.6548174970613206    
  0.5742124963938263    0.6000010214225402    0.574208648527547    0.5044473454723417    0.4193837310789824    
  0.35486706679413127    0.3315251882050845    0.3548653920160915    0.419385894570647    0.5044442337489311    
  0.5742124963938263    0.468215798473557    0.5044454998482502    0.5044473107846568    0.46821572708332665    
  0.4101071757184775    0.35486772006004247    0.32257066046050853    0.3225753187519148    0.3548654448160166    
  0.4101081182741209    0.468215798473557    0.3854357806276963    0.4101070764708293    0.4193837243574413    
  0.4101071610355905    0.3854368579265745    0.35526539429511816    0.331527962633466    0.3225706840097988    
  0.3315252298388498    0.35526768251991103    0.3854357806276963    0.35541679276698007    0.35526846927953154    
  0.3548671116532574    0.35486775678443705    0.35526544586941117    0.3554204893084589    0.35526536196904    
  0.354867787929814    0.3548670644684052    0.3552684669414872    0.35541679276698007    0.38543579993331306    
  0.3552676325918254    0.3315251877599237    0.3225706675748084    0.331528033700736    0.3552653323864858    
  0.3854368212638091    0.4101071725248817    0.41938380405213094    0.4101071111764189    0.38543579993331306    
  0.46821577734100644    0.4101081463101344    0.3548653931643732    0.3225753133063533    0.3225706461233652    
  0.35486774701294604    0.4101071028500738    0.468215707767882    0.5044473692187343    0.5044454816474763    
  0.46821577734100644    0.5742124913732707    0.5044442487631311    0.41938589456510084    0.3548654765770311    
  0.33152525107449166    0.35486705689692555    0.4193836820841164    0.5044473829365901    0.5742087494620485    
  0.600001079370643    0.5742124913732707    0.6548174395695279    0.6000034900429545    0.5044441931627566    
  0.4101081108107999    0.35526766562050766    0.35526846942969126    0.4101071248183615    0.5044455432313127    
  0.6000011348193827    0.6548234829701769    0.6548174395695279    0.6820841159571318    0.6548174722229995    
  0.5742125587863529    0.46821579372815714    0.3854358101008566    0.3554168099520693    0.38543582801285337    
  0.4682157890094757    0.5742125504509649    0.6548174883077027    0.6820841159571318    0.7679579172609861    
  0.7139703343195433    0.5827784505550921    0.4445977615367944    0.3522335936310538    0.32110546031582105    
  0.352233568468076    0.4445977214938766    0.5827784834772668    0.7139703395975364    0.7679579172609861    
  0.7139703434743679    0.7139848251364476    0.6214927281663953    0.4890118212786968    0.37880788486840716    
  0.32092639190928807    0.3209281006688291    0.37880704275150895    0.4890100453041654    0.6214964890617786    
  0.7139703434743679    0.582778420178052    0.6214927262706498    0.5827692391383072    0.489011536177525    
  0.3891656431549255    0.32051630198551323    0.29678729004981746    0.32051513744463267    0.3891680679022179    
  0.48900999395695893    0.582778420178052    0.4445978036365454    0.48901183934648745    0.4890115052614769    
  0.444604205504482    0.3788096812326118    0.3205129522930703    0.2877459224249545    0.28774377387412375    
  0.320515218000171    0.3788070334014761    0.4445978036365454    0.3522335615942357    0.37880787737249916    
  0.389165652179279    0.3788096555342101    0.35222437142994106    0.320929230238312    0.29678677563400213    
  0.2877459741636665    0.2967873206218378    0.32092811711762004    0.3522335615942357    0.3211054963269353    
  0.32092639122601235    0.3205163592060832    0.3205129810773991    0.3209292696565053    0.3211098574323431    
  0.32092922868407797    0.3205129759066973    0.32051628654012576    0.32092645020031285    0.3211054963269353    
  0.35223355482717705    0.320928164930189    0.29678725927899513    0.2877459522039627    0.29678680467609203    
  0.32092922971214016    0.35222437805343204    0.37880965536558986    0.38916568949922575    0.3788079085563114    
  0.35223355482717705    0.44459780660026227    0.37880702939529287    0.32051513709116775    0.28774376068099555    
  0.2877459625371482    0.32051296768299703    0.37880958977949847    0.4446041631633225    0.48901152473734866    
  0.4890118266478365    0.44459780660026227    0.5827784201093607    0.48901000536947964    0.38916805571026625    
  0.32051520014956786    0.29678735047526567    0.3205162591014714    0.38916562502075625    0.4890115388472274    
  0.5827692856275468    0.6214927349502013    0.5827784201093607    0.713970306698526    0.6214965186027858    
  0.48901000216990126    0.3788070496604046    0.32092813702007916    0.32092642142788397    0.37880791229598876    
  0.4890118044035464    0.6214927487195436    0.7139848689307055    0.713970306698526    0.7679579172609861    
  0.7139703343195433    0.5827784505550921    0.4445977615367944    0.3522335936310538    0.32110546031582105    
  0.352233568468076    0.4445977214938766    0.5827784834772668    0.7139703395975364    0.7679579172609861    
  0.6820841192531911    0.6548174986043637    0.5742125573218021    0.46821581126280115    0.38543581081112077    
  0.3554168049352106    0.3854358209072815    0.46821578391900537    0.5742125757605147    0.6548175256763165    
  0.6820841192531911    0.6548174612500688    0.6548234024568041    0.6000010571351692    0.5044455041847533    
  0.41010714881220084    0.3552684445011191    0.35526763573777687    0.4101081299947722    0.5044442540289515    
  0.600003440394633    0.6548174612500688    0.5742124701841381    0.6000010492163207    0.5742086636729457    
  0.5044473437579945    0.4193837276223478    0.35486707709537524    0.3315252102587936    0.3548654160403302    
  0.4193859488230638    0.5044442174895934    0.5742124701841381    0.4682158046241317    0.5044455035482017    
  0.5044473279244891    0.4682157182023495    0.41010717084882975    0.35486774915220937    0.32257066868310885    
  0.3225753280141616    0.3548654603485728    0.41010815670839784    0.4682158046241317    0.38543576977219834    
  0.4101070721411525    0.4193837343370602    0.4101071336782759    0.38543684016950663    0.3552653910961951    
  0.3315279777185535    0.3225706698734376    0.33152523114233057    0.35526767438268214    0.38543576977219834    
  0.3554168182746594    0.35526845003873614    0.3548671309951504    0.3548677684585187    0.35526544029891505    
  0.35542049806940107    0.3552653673598518    0.3548678048595015    0.3548670563301778    0.35526847662426025    
  0.3554168182746594    0.3854357932365774    0.3552676215142523    0.33152516119527564    0.3225706744670583    
  0.33152802713807794    0.3552653277165687    0.3854368349821212    0.41010717398372376    0.4193838149741845    
  0.4101070823560738    0.3854357932365774    0.46821578826507304    0.41010813600484514    0.3548653962048669    
  0.32257531255241734    0.3225706606269409    0.35486775694122236    0.41010709389250505    0.468215719240415    
  0.504447300479911    0.5044454752606864    0.46821578826507304    0.5742124867697587    0.5044442642709419    
  0.41938589419467565    0.35486545441366973    0.33152525265210514    0.3548670280779851    0.4193836787579831    
  0.5044473589219165    0.5742087604423466    0.6000010847174556    0.5742124867697587    0.6548174733200018    
  0.6000034543062444    0.5044442386210509    0.4101081155577415    0.3552676639787879    0.3552684430747778    
  0.4101071266421715    0.5044455277251262    0.6000011392253669    0.6548234799877645    0.6548174733200018    
  0.6820841192531911    0.6548174986043637    0.5742125573218021    0.46821581126280115    0.38543581081112077    
  0.3554168049352106    0.3854358209072815    0.46821578391900537    0.5742125757605147    0.6548175256763165    
  0.6820841192531911    0.381962894725359    0.41866273178681956    0.48645337758004936    0.5044866159406217    
  0.4713124587008071    0.45045069446069164    0.47131243546887125    0.5044865687427376    0.4864534018221431    
  0.41866273894133565    0.381962894725359    0.41866273742125265    0.41864002509593456    0.4701514491385954    
  0.5053424433521765    0.4837119875844144    0.44905883364106974    0.4490607928181954    0.4837121888953143    
  0.5053347818095177    0.4701545438093942    0.41866273742125265    0.4864533902411435    0.47015147614223224    
  0.4864823625294728    0.5053299488380697    0.4864957334477273    0.44649247992843727    0.4274429140721121    
  0.4464911167729128    0.4865015186609556    0.5053347493764885    0.4864533902411435    0.5044866522928428    
  0.5053424453549809    0.5053299136104885    0.5044733866460372    0.4837091650317642    0.4465001723801511    
  0.41848819531651427    0.41849151758387626    0.44649115397803874    0.4837121652291882    0.5044866522928428    
  0.471312421559646    0.4837119721325452    0.48649572612498787    0.48370915934898806    0.4713308374295016    
  0.44906154892799793    0.4274352024674293    0.41848826158506364    0.4274429825813133    0.4490608249805782    
  0.471312421559646    0.45045073932247603    0.44905886833198233    0.44649247767823114    0.4465002403980928    
  0.44906156962050264    0.45042978394051714    0.4490615477390108    0.44650024546232103    0.4464924285705847    
  0.4490588902652265    0.45045073932247603    0.4713124391398636    0.4490608522561727    0.42744286737770176    
  0.41848825479345625    0.42743522624100394    0.4490615463025482    0.47133082048796526    0.4837091700119885    
  0.4864957715275726    0.4837119837355055    0.4713124391398636    0.504486633081409    0.4837121400328585    
  0.4464910915167541    0.41849150772518406    0.41848825770768094    0.4465002426419779    0.48370911412451756    
  0.5044733783159187    0.5053299423286922    0.5053424227945501    0.504486633081409    0.4864533714984914    
  0.5053347377429342    0.4865014724634249    0.4464912259643389    0.42744295961242024    0.4464924274889756    
  0.4864957354590225    0.5053299334644847    0.4864824236254812    0.4701514795409388    0.4864533714984914    
  0.41866272058870246    0.47015456021679525    0.5053347431888332    0.48371214324015344    0.44906087401547073    
  0.44905888885251993    0.4837119697180059    0.5053424597067112    0.47015149049705746    0.41864003853665005    
  0.41866272058870246    0.381962894725359    0.41866273178681956    0.48645337758004936    0.5044866159406217    
  0.4713124587008071    0.45045069446069164    0.47131243546887125    0.5044865687427376    0.4864534018221431    
  0.41866273894133565    0.381962894725359    0.11499769958192527    0.166480969305147    0.3277476441634067    
  0.5022057114939715    0.561653282499886    0.5617893400210819    0.5616533226374025    0.5022057076667172    
  0.32774762915030903    0.1664809799867044    0.11499769958192527    0.16648097070945442    0.16648996565904173    
  0.2758583306700182    0.44964384696955806    0.5487025622534951    0.5575304137816784    0.5575333302210697    
  0.5487082955005474    0.4496071035135939    0.27588892502291257    0.16648097070945442    0.32774760554661064    
  0.27585833293450784    0.3277646522439317    0.4496193612120321    0.5390175855413117    0.5500288815419786    
  0.54150308642308    0.5500183079931293    0.5390565818402607    0.4496071127134042    0.32774760554661064    
  0.5022057245165099    0.44964385337130786    0.4496193189816389    0.5022069612836997    0.5486948263838416    
  0.5500557741113948    0.5327424747246208    0.5327541671002879    0.5500183878533494    0.5487082957364119    
  0.5022057245165099    0.5616532640050171    0.548702480825377    0.5390175697469302    0.5486947943886551    
  0.5616639386047688    0.5575409280188063    0.5414697531461131    0.5327425083068775    0.5415031484770476    
  0.5575333835985552    0.5616532640050171    0.5617893235433903    0.5575304626261741    0.5500289454125051    
  0.5500558287459348    0.5575410081922757    0.5617633919679879    0.5575408982383869    0.5500558609909595    
  0.5500288893956115    0.557530440087658    0.5617893235433903    0.5616533186000432    0.5575333180854737    
  0.5415031019254698    0.5327424886331507    0.541469880237512    0.5575408692087364    0.5616638987176619    
  0.5486948235783694    0.5390176769981248    0.5487024956335138    0.5616533186000432    0.5022057013391263    
  0.5487083241099817    0.5500182899620806    0.5327541668782563    0.5327424738876515    0.5500558020844099    
  0.5486947335485729    0.5022069294031455    0.44961937029041665    0.44964381693718275    0.5022057013391263    
  0.32774759824725835    0.44960712065688196    0.5390565725874186    0.5500184108400613    0.5415031868090959    
  0.5500288592744328    0.5390175383210877    0.4496193886904387    0.32776470762687765    0.27585834851034785    
  0.32774759824725835    0.16648095837552057    0.27588893751969296    0.44960705745850743    0.5487082886077104    
  0.5575333680536326    0.5575304497602513    0.5487025224725941    0.4496438931037554    0.2758583740031529    
  0.16648996411033926    0.16648095837552057    0.11499769958192527    0.166480969305147    0.3277476441634067    
  0.5022057114939715    0.561653282499886    0.5617893400210819    0.5616533226374025    0.5022057076667172    
  0.32774762915030903    0.1664809799867044    0.11499769958192527    0.051236956496206625    0.09185592577945031    
  0.2558020035559993    0.48865539833768046    0.5990177381156654    0.6119523278139359    0.5990177146059302    
  0.48865535068101235    0.2558020110888867    0.09185592756126457    0.051236956496206625    0.09185592579380135    
  0.09189516571724005    0.1977959900643541    0.4118601799880881    0.5713544770823662    0.606293890449636    
  0.6062808734597446    0.5713778656960194    0.4118040215922061    0.1978438582436927    0.09185592579380135    
  0.2558019978737256    0.19779600373843004    0.2557792339595213    0.4118355967388321    0.5548468404407753    
  0.5962985110616535    0.5943955509634626    0.5962837639122804    0.5548986117524353    0.4118039642164779    
  0.2558019978737256    0.4886554433633627    0.4118601778770489    0.4118355822543538    0.48869938895407333    
  0.5713517597160335    0.5963288663541186    0.5860911375177613    0.5861040811730953    0.5962838655404163    
  0.5713778593089144    0.4886554433633627    0.599017678663515    0.5713544597692202    0.5548468254799405    
  0.5713517173636697    0.5989810301680838    0.6063003339486521    0.5943545146993441    0.586091195763307    
  0.5943956187951316    0.6062808674909165    0.599017678663515    0.6119523866931668    0.6062938569286634    
  0.5962986033510074    0.5963289296558071    0.6063004020528011    0.6119683770582711    0.6063003443732081    
  0.5963288961982499    0.5962984948081261    0.6062939513491493    0.6119523866931668    0.5990177077451035    
  0.6062809458032753    0.5943955271678999    0.586091182517953    0.5943545630612695    0.6063003458604269    
  0.5989810143930819    0.5713517094278261    0.5548468843190693    0.5713544941845552    0.5990177077451035    
  0.48865544977281583    0.5713778306686218    0.5962837432267746    0.5861040688263822    0.5860911974695401    
  0.5963288553498937    0.5713516388383982    0.48869934008499477    0.41183558321482305    0.41186016234528044    
  0.48865544977281583    0.25580198113041336    0.41180396320163776    0.5548985743916092    0.5962838425247624    
  0.5943956712872471    0.5962984481648251    0.554846814276347    0.41183560856406526    0.2557792544488125    
  0.1977960033743565    0.25580198113041336    0.09185592400658915    0.19784386261659037    0.4118039637606896    
  0.571377879269544    0.6062809484224573    0.6062939403020303    0.5713544969551373    0.4118601609258616    
  0.19779599380520163    0.0918951671898376    0.09185592400658915    0.051236956496206625    0.09185592577945031    
  0.2558020035559993    0.48865539833768046    0.5990177381156654    0.6119523278139359    0.5990177146059302    
  0.48865535068101235    0.2558020110888867    0.09185592756126457    0.051236956496206625    
  END_DATAGRID_3D    
  END_BLOCK_DATAGRID_3D    