#     DFTpy    
  CRYSTAL 
    
  PRIMVEC    
  1.2650896347847014    -2.191199523575858    0.0    
  1.2650896347847014    2.191199523575858    0.0    
  0.0    0.0    2.3813076868965517    
  PRIMCOORD    
  1    1    
  Si    0.0    0.0    0.0    
  BEGIN_BLOCK_DATAGRID_3D    
  3d_datagrid_density    
  BEGIN_DATAGRID_3D#0    
  11    11    11    
  0.0    0.0    0.0    
  1.2650896347847014    -2.191199523575858    0.0    
  1.2650896347847014    2.191199523575858    0.0    
  0.0    0.0    2.3813076868965517    
  0.05038509976924095    0.10112353468168575    0.2799856502797655    0.4228105295853217    0.40505011631091875    
  0.3779848105306287    0.40505018559129324    0.42281043861385037    0.279985588265937    0.10112355304471418    
  0.05038509976924095    0.10112355344603167    0.10093313876037728    0.22287538352723027    0.39204484050996186    
  0.41828622472183663    0.3758002249345192    0.3758934346238819    0.41821160106361277    0.39195765850266484    
  0.22287001126117792    0.10112355344603167    0.2799856183645582    0.22287537364862223    0.2803809034861282    
  0.39189536374400685    0.4190726583964611    0.3724978638857028    0.34758624888739115    0.37247138542425556    
  0.41924276130799865    0.39195766140350147    0.2799856183645582    0.4228104865756904    0.39204479072068854    
  0.39189537452080603    0.4225518465854657    0.4181852808646462    0.3726910776462068    0.3363361817260835    
  0.3364236945701841    0.37247145077492455    0.4182115814043512    0.4228104865756904    0.4050501657709424    
  0.4182861881861522    0.4190726448341725    0.4181852897397222    0.4053899793570266    0.37584079337748405    
  0.34743876672614293    0.3363361692400559    0.3475862549847736    0.3758933930850451    0.4050501657709424    
  0.37798483220828194    0.3758001763566592    0.3724979052672015    0.372691145442737    0.37584076966868335    
  0.3776719805415126    0.3758407874803193    0.372691112238438    0.37249786420759706    0.3758001950164994    
  0.37798483220828194    0.4050501166921867    0.37589337417198887    0.34758624167470287    0.33633620256971836    
  0.3474387010023714    0.37584078407366617    0.4053900169868407    0.41818525299650794    0.41907271560987763    
  0.4182862022649783    0.4050501166921867    0.4228104858378877    0.4182115811819234    0.37247141380209237    
  0.33642373197825454    0.3363361816803717    0.37269111813211636    0.4181853142202916    0.4225518287930175    
  0.39189539776493787    0.3920448289388495    0.4228104858378877    0.2799856444225012    0.39195758533326364    
  0.4192427120087461    0.3724714088059862    0.34758623999116045    0.37249786669786983    0.41907268694772526    
  0.3918953711875038    0.28038096312779304    0.22287539075122287    0.2799856444225012    0.10112356667580602    
  0.22287005026348566    0.39195766258977294    0.4182115666477898    0.37589338475174144    0.3758002192608328    
  0.4182862265233408    0.3920447841420238    0.22287538741011148    0.10093311529673642    0.10112356667580602    
  0.05038509976924095    0.10112353468168575    0.2799856502797655    0.4228105295853217    0.40505011631091875    
  0.3779848105306287    0.40505018559129324    0.42281043861385037    0.279985588265937    0.10112355304471418    
  0.05038509976924095    0.09755135479550801    0.157195844795872    0.3214811018725353    0.41517052574380564    
  0.3790243936355298    0.3507271593367815    0.37902447560158714    0.41517044602398795    0.32148108952604304    
  0.15719589820802102    0.09755135479550801    0.1571959010482635    0.15697228626354748    0.27417527257237556    
  0.4005712876933707    0.3959956338442692    0.34910583135335416    0.349181695427929    0.3959281320118372    
  0.40052849677634283    0.2741401182588277    0.1571959010482635    0.32148109941782727    0.2741752527898958    
  0.32183331495407397    0.4004593894798399    0.3994441072143288    0.346713274033059    0.3219210112344701    
  0.3467006681413359    0.3995514567056222    0.40052846157893945    0.32148109941782727    0.41517046383582135    
  0.40057115745921695    0.4004594028354826    0.4149535182508121    0.3959237034715173    0.3468460841196226    
  0.311306417759337    0.3113608389404439    0.3467007433787881    0.39592816535799463    0.41517046383582135    
  0.3790244638668029    0.3959956377625303    0.39944414122884564    0.3959237269812817    0.37928800250890876    
  0.34913662606948415    0.321821637479422    0.31130640340356563    0.3219210401452224    0.34918164683283903    
  0.3790244638668029    0.3507271655920916    0.3491058078105344    0.34671328364835186    0.34684616745095936    
  0.3491365732360519    0.35048757087503485    0.3491366208537552    0.34684608532819733    0.3467132775376963    
  0.3491058651014832    0.3507271655920916    0.3790244329995533    0.3491816559083788    0.3219210011874078    
  0.3113064007411458    0.321821577420037    0.34913660792246426    0.3792880525580231    0.3959236541156785    
  0.39944419644843043    0.3959956732589852    0.3790244329995533    0.41517046799549967    0.39592812659940224    
  0.3467006963807135    0.31136088947059604    0.3113063874256609    0.34684610150571393    0.3959236922932802    
  0.4149534431092952    0.4004594038425854    0.4005712349099924    0.41517046799549967    0.3214811080352384    
  0.4005283996418593    0.3995514070186615    0.3467006973578012    0.3219210227826854    0.34671326912467987    
  0.3994442173312388    0.4004593894995802    0.32183337577858584    0.2741752789035373    0.3214811080352384    
  0.15719591439548153    0.2741401514184356    0.4005283922241261    0.3959281519473655    0.34918166777487053    
  0.3491058362350717    0.3959956849714615    0.4005712056577562    0.2741752713733525    0.15697225391528846    
  0.15719591439548153    0.09755135479550801    0.157195844795872    0.3214811018725353    0.41517052574380564    
  0.3790243936355298    0.3507271593367815    0.37902447560158714    0.41517044602398795    0.32148108952604304    
  0.15719589820802102    0.09755135479550801    0.2808758912254448    0.32745048435621493    0.39851811171898516    
  0.3811220377946362    0.3157072736860731    0.28702954946566556    0.3157073383657512    0.3811219083062956    
  0.3985180802035415    0.32745050857693503    0.2808758912254448    0.3274505425194303    0.32729943521018096    
  0.3851908059378595    0.39754560859825133    0.3375287914829674    0.2862577486325558    0.2862837320064859    
  0.3375020690320908    0.3975421585956543    0.3851560896523279    0.3274505425194303    0.3985180675841254    
  0.3851907733899436    0.39867922824680485    0.3975077536427246    0.34491701784377177    0.2850864132571262    
  0.26207606406129513    0.2850866340951666    0.3449414661785684    0.39754210259982736    0.3985180675841254    
  0.381121964182663    0.39754552242145913    0.39750778204663095    0.3810349566101343    0.33750708964691084    
  0.28512486163188355    0.2529907571167425    0.2530024938730522    0.28508669583841717    0.3375020900844335    
  0.381121964182663    0.31570734983626325    0.33752882289766073    0.34491700689599436    0.33750714377890206    
  0.3158006367760611    0.2862671166164271    0.2620480018503664    0.25299072128513383    0.2620760480653844    
  0.28628369757520206    0.31570734983626325    0.28702948032150577    0.286257669529732    0.2850864612805935    
  0.28512491281855706    0.28626709834729624    0.28694562600055556    0.2862671380271079    0.2851248580296601    
  0.28508643449843846    0.2862577744867256    0.28702948032150577    0.3157072888773078    0.28628371694491667    
  0.2620760447272162    0.25299076339047744    0.26204799368314474    0.28626709222985647    0.31580064123774026    
  0.3375070861098761    0.3449170527097275    0.3375288034892143    0.3157072888773078    0.38112197435739037    
  0.3375020860206608    0.28508663911295923    0.25300246691501227    0.25299069138693053    0.2851248371823989    
  0.33750712414536305    0.3810349018948673    0.3975077512020646    0.39754560831179586    0.38112197435739037    
  0.39851811220498123    0.3975420891933331    0.34494146131166753    0.2850866410233175    0.2620760427081479    
  0.2850864382944175    0.34491707923324055    0.3975077595433237    0.39867933231797914    0.3851908601092996    
  0.39851811220498123    0.32745056383466287    0.3851561487832291    0.39754206066501324    0.33750209844878665    
  0.286283708400308    0.2862577188990696    0.33752887911039287    0.3975455548031155    0.3851908343428982    
  0.3272993522222041    0.32745056383466287    0.2808758912254448    0.32745048435621493    0.39851811171898516    
  0.3811220377946362    0.3157072736860731    0.28702954946566556    0.3157073383657512    0.3811219083062956    
  0.3985180802035415    0.32745050857693503    0.2808758912254448    0.48821812189226094    0.4755699791214393    
  0.41756749004292826    0.32244500434433915    0.24664002987515526    0.22031453802764625    0.24664007373078775    
  0.322444920456864    0.4175674827849508    0.4755700199786363    0.48821812189226094    0.47557006951493896    
  0.47554268010635625    0.43849431470909966    0.3562472056504864    0.26906421087617666    0.22024159196773652    
  0.22024548157390186    0.26905897390350314    0.3562459074107363    0.4384890389047333    0.47557006951493896    
  0.41756749047795544    0.4384942855109964    0.41759377734041186    0.35624356622157793    0.2777760826685758    
  0.21999456949880786    0.20021097615926153    0.21999503603633072    0.27778147410955173    0.3562458500111215    
  0.41756749047795544    0.3224449387456345    0.3562470997063655    0.35624359508632736    0.32243120958082844    
  0.26906166574566404    0.22000015883207694    0.19288533606794456    0.19288513160737156    0.21999508298994938    
  0.26905898225677455    0.3224449387456345    0.24664007732589321    0.2690642346599441    0.2777760898739174    
  0.26906172065394535    0.2466513540159205    0.22024287128662828    0.20020607071115568    0.19288529521046083    
  0.20021096493463805    0.22024543842739505    0.24664007732589321    0.22031452168654583    0.22024155666018558    
  0.21999459189282436    0.22000021430799    0.22024285541854915    0.2203045028748584    0.22024291250633168    
  0.2200001516276457    0.21999458139836467    0.22024162713432283    0.22031452168654583    0.2466400442532985    
  0.22024545425833528    0.20021096415484668    0.1928853292213174    0.20020606884628553    0.22024285632820267    
  0.24665135948273745    0.2690616869473919    0.2777761292285551    0.2690642334976395    0.2466400442532985    
  0.3224449645501864    0.26905897743552937    0.21999504006949477    0.19288513696856774    0.19288525013165442    
  0.22000012842810285    0.26906172570388653    0.32243114941701917    0.35624358086683006    0.356247194731203    
  0.3224449645501864    0.4175675352095598    0.35624585243791357    0.27778147167274864    0.21999504625732993    
  0.2002109819587838    0.21999457998541389    0.27777614618924734    0.35624356996132794    0.41759387955029553    
  0.43849434021206146    0.4175675352095598    0.47557009627781743    0.4384890892279774    0.356245830194057    
  0.2690590043259205    0.2202454542363436    0.22024158226037188    0.2690642613751553    0.3562471374007519    
  0.43849432178103726    0.4755426307795017    0.47557009627781743    0.48821812189226094    0.4755699791214393    
  0.41756749004292826    0.32244500434433915    0.24664002987515526    0.22031453802764625    0.24664007373078775    
  0.322444920456864    0.4175674827849508    0.4755700199786363    0.48821812189226094    0.5364533021612942    
  0.4913577250873079    0.3827917807767877    0.27088124969797567    0.19855528720926638    0.1748897356746647    
  0.19855532195954928    0.2708811841745453    0.38279179232292315    0.49135786378618646    0.5364533021612942    
  0.4913579173898387    0.4913579993932038    0.4147536687497078    0.3067722885346592    0.21949228678341498    
  0.1753512950268056    0.17535091978009487    0.21949261110202026    0.30676647648562416    0.4147596872902067    
  0.4913579173898387    0.38279181640188426    0.4147536590829988    0.38279929120753126    0.30676551356482523    
  0.22792787934512185    0.17583321323515227    0.15850675575172538    0.17583332380043482    0.22793067017987312    
  0.306766460386506    0.38279181640188426    0.27088122629778993    0.3067722155924985    0.3067655184102921    
  0.2708832001428649    0.2194934132043381    0.17583479470825653    0.15238935370507703    0.15238801317133843    
  0.17583337743390492    0.21949262324482344    0.27088122629778993    0.19855534155761895    0.21949227856196346    
  0.22792787925562344    0.219493433995963    0.19855307773708214    0.17535199631836007    0.15850398403897364    
  0.15238935977053894    0.15850676756758905    0.17535088633186707    0.19855534155761895    0.17488974485248954    
  0.1753512758437387    0.1758332163965122    0.17583484669596244    0.17535199208325172    0.17488997876566467    
  0.17535201010778487    0.17583478814974599    0.1758331987711922    0.17535129953456363    0.17488974485248954    
  0.19855531501102536    0.175350892896766    0.15850676920425563    0.15238935971451578    0.15850394831713246    
  0.17535200441833532    0.19855310842476645    0.21949337783521858    0.22792793118679233    0.21949228780807342    
  0.19855531501102536    0.27088120911720903    0.21949260610306381    0.17583332320541373    0.15238800548616752    
  0.15238933966961246    0.1758347698941406    0.21949341172277329    0.2708831706656334    0.30676553566307974    
  0.3067722628217909    0.27088120911720903    0.382791827074025    0.30676640391320437    0.2279306502661226    
  0.1758333250048123    0.15850675404861128    0.17583319355737395    0.22792792365578918    0.30676551308150385    
  0.3827993541801708    0.414753724605321    0.382791827074025    0.49135791624319797    0.4147597079036639    
  0.3067664102617984    0.21949262171887596    0.17535088830883308    0.1753512871526469    0.21949231673758388    
  0.3067722315970602    0.41475369832206244    0.49135797469251713    0.49135791624319797    0.5364533021612942    
  0.4913577250873079    0.3827917807767877    0.27088124969797567    0.19855528720926638    0.1748897356746647    
  0.19855532195954928    0.2708811841745453    0.38279179232292315    0.49135786378618646    0.5364533021612942    
  0.5255880607718406    0.47579863247145027    0.3620249000582041    0.25146097673058393    0.18211854253170065    
  0.15953839396497332    0.18211857886967917    0.251460913853446    0.36202482675017994    0.4757986973236201    
  0.5255880607718406    0.47579873148155866    0.4758023828791804    0.39470885481474854    0.2863598664132144    
  0.20222957513704468    0.16016918395953927    0.1601664126282086    0.20223228710501093    0.28635382088964917    
  0.39471635965689816    0.47579873148155866    0.3620248780282332    0.3947088610351443    0.3620277750201022    
  0.28635506888509477    0.21039176348829508    0.1608900821529004    0.14439366825801708    0.16088964809337786    
  0.2103937416945738    0.2863538194641013    0.3620248780282332    0.25146096000895135    0.28635982543621125    
  0.28635508373234414    0.25146505021134685    0.2022289707005504    0.1608945128979961    0.1386478107750417    
  0.138652602616162    0.16088969064936792    0.20223227740000296    0.25146096000895135    0.18211856626430556    
  0.2022295467096904    0.21039175410639502    0.20222898180527882    0.18211905670959483    0.16016470722366263    
  0.14439471038091167    0.13864779289020115    0.14439366446858304    0.16016638334759237    0.18211856626430556    
  0.15953841450920703    0.16016914498760504    0.1608901075818895    0.16089454948398219    0.1601647020949406    
  0.15954412150707176    0.16016471491831197    0.16089453329593062    0.16089007518777373    0.16016916581943474    
  0.15953841450920703    0.18211853498731798    0.1601663844315664    0.14439367022580732    0.13864782078518187    
  0.1443946625475737    0.16016471035897634    0.18211909832130949    0.20222895508195612    0.21039180731748816    
  0.20222954939074034    0.18211853498731798    0.2514609515568794    0.20223227281363684    0.16088967034654011    
  0.13865261684508243    0.13864779485827272    0.16089454195833228    0.20222899486018056    0.2514650345555646    
  0.28635509950147897    0.2863598542382899    0.2514609515568794    0.3620248986346667    0.286353761395577    
  0.21039371069654353    0.1608896729998466    0.14439364780943864    0.16089008108116296    0.21039178628153674    
  0.286355067973464    0.36202782983821635    0.3947088876059526    0.3620248986346667    0.47579874923698834    
  0.394716412470463    0.2863538171356711    0.20223226607358388    0.16016638073635941    0.1601691832479879    
  0.20222957403163716    0.28635980269361555    0.3947088600893069    0.47580233069490235    0.47579874923698834    
  0.5255880607718406    0.47579863247145027    0.3620249000582041    0.25146097673058393    0.18211854253170065    
  0.15953839396497332    0.18211857886967917    0.251460913853446    0.36202482675017994    0.4757986973236201    
  0.5255880607718406    0.5364533097177432    0.4913577487868826    0.3827918132623274    0.27088123760238453    
  0.19855529180401996    0.1748897390432901    0.19855533715706492    0.2708811944704042    0.3827918037247028    
  0.4913578814280261    0.5364533097177432    0.49135790306072763    0.49135800017322573    0.41475368866910856    
  0.3067723177172178    0.21949227819075443    0.17535129851095899    0.17535091853060605    0.21949261255381367    
  0.30676647332316803    0.41475970374128207    0.49135790306072763    0.3827918216265114    0.4147536952259639    
  0.3827992996762856    0.3067655208811396    0.22792786444159938    0.17583320811396969    0.15850675143839474    
  0.175833306320341    0.22793067198517908    0.30676644013691334    0.3827918216265114    0.2708812177825922    
  0.30677220666502586    0.30676552723251144    0.27088321478655186    0.21949341367105557    0.1758347716556716    
  0.15238935061707565    0.152388002109227    0.17583335615465476    0.21949264109133482    0.2708812177825922    
  0.19855533476120868    0.21949229111352533    0.22792787836649203    0.2194934296325933    0.19855306794661762    
  0.17535200826557454    0.1585039786018326    0.15238934426322417    0.15850677142766018    0.1753508841192364    
  0.19855533476120868    0.17488974779944197    0.17535127691460883    0.17583320523684154    0.17583483427882962    
  0.1753519846397436    0.1748899531423654    0.17535201034527215    0.17583477836443112    0.17583320479759834    
  0.17535131958259073    0.17488974779944197    0.19855531030356804    0.17535088683478345    0.15850675314322063    
  0.15238934859379882    0.15850393647597608    0.1753520074272081    0.19855310664535364    0.21949337126997276    
  0.2279279252086385    0.21949229008978458    0.19855531030356804    0.27088120354308337    0.2194926134053873    
  0.17583333622634492    0.15238802660241524    0.15238933362541054    0.17583479120900855    0.2194934131374638    
  0.27088314623973697    0.30676551990545664    0.3067722635134711    0.27088120354308337    0.3827918313938382    
  0.3067663993149436    0.22793064435906854    0.17583333490295888    0.15850675661439423    0.17583320406170097    
  0.22792794894525448    0.30676550256397844    0.38279936179797    0.4147537126190596    0.3827918313938382    
  0.49135789121308315    0.41475971910431686    0.3067663915705971    0.21949261935331518    0.17535089448129362    
  0.17535130046429687    0.21949231392580135    0.30677222492670186    0.4147536990732667    0.49135796589549874    
  0.49135789121308315    0.5364533097177432    0.4913577487868826    0.3827918132623274    0.27088123760238453    
  0.19855529180401996    0.1748897390432901    0.19855533715706492    0.2708811944704042    0.3827918037247028    
  0.4913578814280261    0.5364533097177432    0.4882180851684506    0.4755699821624886    0.4175675328459655    
  0.32244501345277776    0.24664002561651968    0.22031455708310033    0.24664007344965128    0.3224449032638751    
  0.41756750601432335    0.4755700501859868    0.4882180851684506    0.47557006598702023    0.47554270776164836    
  0.43849431492274554    0.3562471845952777    0.26906421565331906    0.22024160596276784    0.22024547654741045    
  0.26905895645963734    0.3562459113915584    0.438489064166759    0.47557006598702023    0.41756749196557835    
  0.4384942836636611    0.4175937841245974    0.3562435767532853    0.27777609423377536    0.21999456262522932    
  0.20021098069521542    0.21999503337196163    0.27778145645529984    0.3562458520033328    0.41756749196557835    
  0.3224449512623441    0.3562471046657429    0.35624360213624995    0.32243118652090563    0.2690617015242254    
  0.220000162313323    0.19288533058588594    0.19288514047405228    0.21999509031812883    0.26905898364946124    
  0.3224449512623441    0.24664008483271754    0.2690642498792978    0.277776079610546    0.269061737922051    
  0.24665135051051976    0.2202428642783737    0.20020606078469005    0.19288530119784716    0.20021096807914626    
  0.22024544180793512    0.24664008483271754    0.22031450548158982    0.22024153382794268    0.21999460137251212    
  0.22000021655297303    0.2202428564125418    0.22030448659051266    0.22024288528945707    0.22000015968278763    
  0.21999457789027424    0.22024162380923454    0.22031450548158982    0.2466400338171887    0.220245457832962    
  0.20021097700461513    0.19288534413480274    0.20020606021446108    0.22024285102336577    0.24665134843603514    
  0.2690616786582151    0.2777761174707611    0.269064221648637    0.2466400338171887    0.3224449598950918    
  0.2690589801899785    0.2199950425386122    0.19288511745792372    0.19288527847463124    0.22000013918168335    
  0.2690617262457202    0.3224311251182449    0.3562435643868903    0.3562471711077488    0.3224449598950918    
  0.4175675249004978    0.3562458559866162    0.2777814667706756    0.21999503752637292    0.20021097386725673    
  0.21999458254004273    0.2777761356696968    0.3562435666093052    0.41759387632583217    0.4384943521778456    
  0.4175675249004978    0.47557009297394576    0.43848909092729527    0.35624582741987765    0.26905899182277476    
  0.22024545150978064    0.22024157520601528    0.26906428573339713    0.3562471200740619    0.43849432136841754    
  0.4755425714276462    0.47557009297394576    0.4882180851684506    0.4755699821624886    0.4175675328459655    
  0.32244501345277776    0.24664002561651968    0.22031455708310033    0.24664007344965128    0.3224449032638751    
  0.41756750601432335    0.4755700501859868    0.4882180851684506    0.2808759113966023    0.3274504812854899    
  0.3985180802765153    0.3811220249391715    0.3157072751473573    0.2870295350749104    0.3157073289399458    
  0.38112193033965686    0.3985180686478286    0.3274504993589001    0.2808759113966023    0.32745053828506954    
  0.3272994200241528    0.38519082763136386    0.397545636517398    0.3375287789376566    0.28625774314083746    
  0.28628373409321883    0.3375020706973719    0.39754216484514926    0.38515608256160055    0.32745053828506954    
  0.39851806914104254    0.38519079521527805    0.398679232555435    0.3975077643621043    0.3449170056226003    
  0.285086420075487    0.26207604996614836    0.28508662795839634    0.34494147443716183    0.397542091407496    
  0.39851806914104254    0.38112194049290254    0.39754552953540834    0.39750778725529645    0.381034993842686    
  0.33750705701154715    0.2851248425111718    0.252990765468626    0.25300246930129267    0.2850866760940924    
  0.3375020792471142    0.38112194049290254    0.3157073378758411    0.3375288281052235    0.3449170190994203    
  0.33750712894814516    0.3158006493930838    0.2862671243966432    0.2620479949816583    0.2529907098268607    
  0.2620760381344092    0.2862836989652033    0.3157073378758411    0.28702951579374525    0.28625770338045026    
  0.2850864552757352    0.28512491957213776    0.2862671142193446    0.28694565208699635    0.28626715637556055    
  0.2851248414937136    0.28508642756263103    0.2862577794775276    0.28702951579374525    0.31570730271720726    
  0.286283716410283    0.26207603170056687    0.2529907624151473    0.262048005529918    0.28626710114608644    
  0.31580064101567484    0.3375070768155893    0.3449170489119317    0.3375288076938365    0.31570730271720726    
  0.38112199515461137    0.3375020871243461    0.28508662868633083    0.2530024807436154    0.25299067939144837    
  0.2851248096075213    0.337507126614113    0.3810349226886731    0.3975077661879324    0.397545622116688    
  0.38112199515461137    0.39851811321424646    0.3975421026337708    0.344941470528335    0.2850866405182046    
  0.26207606654807303    0.28508643929593713    0.3449170793995249    0.3975077558283145    0.39867931672532814    
  0.38519083336298193    0.39851811321424646    0.3274505764486322    0.385156121866001    0.39754207285822746    
  0.3375020948648183    0.2862837178577775    0.2862577226457697    0.33752885209710926    0.3975455617039762    
  0.38519082874190763    0.3272993535143935    0.3274505764486322    0.2808759113966023    0.3274504812854899    
  0.3985180802765153    0.3811220249391715    0.3157072751473573    0.2870295350749104    0.3157073289399458    
  0.38112193033965686    0.3985180686478286    0.3274504993589001    0.2808759113966023    0.09755135159520391    
  0.15719582850555883    0.3214810791729318    0.415170519430446    0.3790243874610111    0.3507271432200719    
  0.3790244573458086    0.4151704275430121    0.3214810815094363    0.1571958919643691    0.09755135159520391    
  0.1571959126670281    0.15697228388173454    0.27417526569180256    0.4005712546501696    0.395995633554888    
  0.3491058325998392    0.3491817033760355    0.39592813404266974    0.4005284921041814    0.27414011712352104    
  0.1571959126670281    0.3214810904882048    0.2741752206226811    0.32183331852971797    0.40045939502457495    
  0.3994441371806388    0.3467132755764427    0.32192102259073424    0.34670068544364    0.39955144857117353    
  0.4005284732274343    0.3214810904882048    0.41517047777936783    0.4005711757748682    0.4004593894713144    
  0.4149535084688856    0.3959237102974508    0.34684610677751615    0.31130641536297265    0.3113608487251115    
  0.3467007706745532    0.39592813709999586    0.41517047777936783    0.3790244646248065    0.3959956344688337    
  0.3994441319395088    0.3959237284049441    0.3792880365864376    0.3491366114040117    0.32182163761603005    
  0.31130641919289564    0.32192103977616965    0.34918165655767136    0.3790244646248065    0.35072715820541367    
  0.34910580777704564    0.346713285776106    0.3468461828249092    0.3491366011159401    0.3504876019981111    
  0.3491366220486276    0.34684609502367797    0.3467132505768227    0.3491058404075275    0.35072715820541367    
  0.37902443532641655    0.34918165002202783    0.32192103414234374    0.3113064325038566    0.3218215972848164    
  0.3491366061137697    0.3792880490645224    0.395923659079349    0.3994441961570303    0.39599565260389963    
  0.37902443532641655    0.4151704755108764    0.3959281216012595    0.3467006888994323    0.31136085791706447    
  0.3113064106015011    0.3468460777936263    0.3959236947515996    0.41495347453757986    0.40045940914068096    
  0.40057121899343284    0.4151704755108764    0.321481099245827    0.40052840785050364    0.3995514139890329    
  0.3467006879189166    0.3219210426188555    0.3467132553618967    0.3994441949014701    0.4004593982433017    
  0.32183336772279125    0.2741752847943478    0.321481099245827    0.1571959203675757    0.27414012790481346    
  0.400528402511324    0.3959281432335926    0.34918164899484433    0.3491058238157262    0.3959956833038747    
  0.40057119454655193    0.27417527349843546    0.15697225221441546    0.1571959203675757    0.09755135159520391    
  0.15719582850555883    0.3214810791729318    0.415170519430446    0.3790243874610111    0.3507271432200719    
  0.3790244573458086    0.4151704275430121    0.3214810815094363    0.1571958919643691    0.09755135159520391    
  0.05038509976924095    0.10112353468168575    0.2799856502797655    0.4228105295853217    0.40505011631091875    
  0.3779848105306287    0.40505018559129324    0.42281043861385037    0.279985588265937    0.10112355304471418    
  0.05038509976924095    0.10112355344603167    0.10093313876037728    0.22287538352723027    0.39204484050996186    
  0.41828622472183663    0.3758002249345192    0.3758934346238819    0.41821160106361277    0.39195765850266484    
  0.22287001126117792    0.10112355344603167    0.2799856183645582    0.22287537364862223    0.2803809034861282    
  0.39189536374400685    0.4190726583964611    0.3724978638857028    0.34758624888739115    0.37247138542425556    
  0.41924276130799865    0.39195766140350147    0.2799856183645582    0.4228104865756904    0.39204479072068854    
  0.39189537452080603    0.4225518465854657    0.4181852808646462    0.3726910776462068    0.3363361817260835    
  0.3364236945701841    0.37247145077492455    0.4182115814043512    0.4228104865756904    0.4050501657709424    
  0.4182861881861522    0.4190726448341725    0.4181852897397222    0.4053899793570266    0.37584079337748405    
  0.34743876672614293    0.3363361692400559    0.3475862549847736    0.3758933930850451    0.4050501657709424    
  0.37798483220828194    0.3758001763566592    0.3724979052672015    0.372691145442737    0.37584076966868335    
  0.3776719805415126    0.3758407874803193    0.372691112238438    0.37249786420759706    0.3758001950164994    
  0.37798483220828194    0.4050501166921867    0.37589337417198887    0.34758624167470287    0.33633620256971836    
  0.3474387010023714    0.37584078407366617    0.4053900169868407    0.41818525299650794    0.41907271560987763    
  0.4182862022649783    0.4050501166921867    0.4228104858378877    0.4182115811819234    0.37247141380209237    
  0.33642373197825454    0.3363361816803717    0.37269111813211636    0.4181853142202916    0.4225518287930175    
  0.39189539776493787    0.3920448289388495    0.4228104858378877    0.2799856444225012    0.39195758533326364    
  0.4192427120087461    0.3724714088059862    0.34758623999116045    0.37249786669786983    0.41907268694772526    
  0.3918953711875038    0.28038096312779304    0.22287539075122287    0.2799856444225012    0.10112356667580602    
  0.22287005026348566    0.39195766258977294    0.4182115666477898    0.37589338475174144    0.3758002192608328    
  0.4182862265233408    0.3920447841420238    0.22287538741011148    0.10093311529673642    0.10112356667580602    
  0.05038509976924095    0.10112353468168575    0.2799856502797655    0.4228105295853217    0.40505011631091875    
  0.3779848105306287    0.40505018559129324    0.42281043861385037    0.279985588265937    0.10112355304471418    
  0.05038509976924095    
  END_DATAGRID_3D    
  END_BLOCK_DATAGRID_3D    