#     DFTpy    
  CRYSTAL 
    
  PRIMVEC    
  2.535931034482759    0.0    0.0    
  0.0    2.535931034482759    0.0    
  0.0    0.0    2.535931034482759    
  PRIMCOORD    
  2    1    
  Si    0.0    0.0    0.0    
  Si    1.2679655172413795    1.2679655172413795    1.2679655172413795    
  BEGIN_BLOCK_DATAGRID_3D    
  3d_datagrid_density    
  BEGIN_DATAGRID_3D#0    
  11    11    11    
  0.0    0.0    0.0    
  2.535931034482759    0.0    0.0    
  0.0    2.535931034482759    0.0    
  0.0    0.0    2.535931034482759    
  0.05730594062213406    0.1178515442377972    0.3368447629348725    0.508164494027288    0.4789338100812634    
  0.4409584553332639    0.478933771287901    0.5081645349594168    0.3368447419488794    0.11785153483691176    
  0.05730594062213406    0.11785154508734735    0.19280833304503817    0.4044733557384044    0.5274250901463098    
  0.48256988827552433    0.4450934443885846    0.48256991463319926    0.5274250618414239    0.40447335390169087    
  0.1928083334451049    0.11785154508734735    0.3368447436506743    0.40447332872818137    0.5265753277566755    
  0.5445530646896444    0.4829645040828504    0.45069508821718673    0.482964477024745    0.5445530897162273    
  0.5265753641826681    0.404473294803212    0.3368447436506743    0.5081645105997644    0.5274250600436939    
  0.5445530693527943    0.5162918530265606    0.47083425115460126    0.45069502396462086    0.4708342752626051    
  0.5162918322396286    0.5445531140642678    0.5274250493934759    0.5081645105997644    0.47893379306490974    
  0.4825698779697782    0.4829645162773804    0.47083427251367616    0.4535701152292173    0.4450935084838659    
  0.4535701491639585    0.470834247931619    0.4829645162597625    0.48256987708552534    0.47893379306490974    
  0.44095844096669007    0.44509346376954817    0.4506951080474553    0.45069502875446    0.4450935253286471    
  0.44095839894055316    0.445093496223833    0.4506950192749778    0.4506951055019089    0.4450934263443655    
  0.44095844096669007    0.4789338252117335    0.48256988141107815    0.4829644998433677    0.4708342945645041    
  0.45357011512379714    0.4450935093127347    0.45357013655546036    0.4708342659926515    0.48296454366855374    
  0.4825698761999557    0.4789338252117335    0.508164494028255    0.5274250655893632    0.5445530344980667    
  0.5162918409414184    0.4708342791886908    0.4506950295409121    0.4708342489443816    0.5162918298915616    
  0.5445530645305974    0.5274250211628709    0.508164494028255    0.3368447330071938    0.40447333926886325    
  0.5265753319279329    0.5445530986864823    0.48296447837192075    0.45069506484984645    0.4829645139389462    
  0.5445530529240279    0.5265753757986816    0.40447330387112024    0.3368447330071938    0.11785155896437112    
  0.19280833408099757    0.4044733280280087    0.5274250673750528    0.48256989962527996    0.4450934359194614    
  0.4825698981443829    0.5274250370934571    0.40447335640248283    0.19280833358842997    0.11785155896437112    
  0.05730594062213406    0.1178515442377972    0.3368447629348725    0.508164494027288    0.4789338100812634    
  0.4409584553332639    0.478933771287901    0.5081645349594168    0.3368447419488794    0.11785153483691176    
  0.05730594062213406    0.11785154417100842    0.19280832217899205    0.40447331555664584    0.5274250373263568    
  0.48256988348847724    0.4450934972309796    0.48256987395269757    0.5274250549183341    0.4044733602415717    
  0.1928083207177286    0.11785154417100842    0.1928083259819782    0.27317603608902896    0.4627775631848903    
  0.5440196295855227    0.4896177709961377    0.45357014309763477    0.48961774295491134    0.544019620160361    
  0.46277758626537224    0.2731759917028982    0.1928083259819782    0.4044733392596223    0.46277754976371654    
  0.5587675152152982    0.5606037312111568    0.5004245572974699    0.47083422062928637    0.5004245904126505    
  0.5606037106392228    0.5587675402576732    0.46277748720162715    0.4044733392596223    0.5274250544193824    
  0.5440195909956176    0.5606037439163167    0.5389662782734129    0.500424548575709    0.4829645167576902    
  0.5004245276699159    0.5389662608986088    0.5606037665375456    0.5440196271102221    0.5274250544193824    
  0.4825699100553031    0.48961773879384723    0.5004245770900405    0.5004245655567561    0.48961776574912086    
  0.4825698496390059    0.48961779967561364    0.5004244914221354    0.500424611143448    0.4896177309715409    
  0.4825699100553031    0.4450934457108409    0.45357018008386474    0.4708342217470255    0.4829645488218916    
  0.48256981865309995    0.4789338663036844    0.48256981233842333    0.4829645934984237    0.47083420483171357    
  0.45357017153272233    0.4450934457108409    0.4825699025324029    0.48961773607344145    0.5004245851496838    
  0.5004245455966473    0.4896177965867606    0.4825698398565688    0.4896178239269946    0.5004245282090174    
  0.500424583845094    0.4896177360488471    0.4825699025324029    0.5274250476239443    0.5440196146853611    
  0.5606037541798151    0.5389662719679139    0.5004245327916859    0.48296453425834784    0.500424506552495    
  0.5389663058238907    0.5606037459281955    0.5440196027340329    0.5274250476239443    0.40447331896239214    
  0.4627775380089319    0.558767546309693    0.5606037252208521    0.500424561967731    0.4708342147627635    
  0.5004245978838919    0.560603693230745    0.5587675675715907    0.4627775521058927    0.40447331896239214    
  0.19280833436153247    0.27317601275987147    0.4627775948182649    0.5440196141757685    0.48961776209966773    
  0.45357016761423113    0.4896177526702917    0.5440196107826295    0.4627775610566238    0.27317599766798606    
  0.19280833436153247    0.11785154417100842    0.19280832217899205    0.40447331555664584    0.5274250373263568    
  0.48256988348847724    0.4450934972309796    0.48256987395269757    0.5274250549183341    0.4044733602415717    
  0.1928083207177286    0.11785154417100842    0.3368447537852945    0.40447331300003897    0.5265753419885305    
  0.5445530305517425    0.48296448257472846    0.4506951037541913    0.48296449488796117    0.5445530635308146    
  0.5265753278935345    0.4044733087460965    0.3368447537852945    0.4044733230276332    0.46277752897750707    
  0.5587675548449735    0.5606037290671848    0.5004246033082429    0.4708341793336326    0.500424611734602    
  0.5606037258230777    0.5587676148890429    0.46277755368724643    0.4044733230276332    0.5265753298973789    
  0.5587675646929516    0.6033956229423111    0.5879704106602788    0.5389662346632539    0.5162918463148072    
  0.5389662190250857    0.5879704332873481    0.6033956330928008    0.5587674898880108    0.5265753298973789    
  0.5445530542220565    0.560603680551793    0.5879704702906529    0.5879703686751276    0.5606037930480372    
  0.5445529967625136    0.5606037427627054    0.5879704163726788    0.5879704738138329    0.560603687131168    
  0.5445530542220565    0.4829644872698267    0.5004245947686816    0.5389662508386002    0.5606038080614424    
  0.5440195553169049    0.5274250791620009    0.5440196102044874    0.5606037671610412    0.538966245209655    
  0.5004245391665527    0.4829644872698267    0.45069506713160074    0.4708342051391236    0.5162918637054046    
  0.544552988175643    0.5274251086752635    0.508164473621371    0.5274250879007253    0.5445530496369045    
  0.5162918853575535    0.4708342500811584    0.45069506713160074    0.4829645075874021    0.5004245762458647    
  0.5389662626847063    0.560603785613967    0.5440195687313337    0.5274250823418797    0.5440195696393527    
  0.5606037431765557    0.5389662817616567    0.5004245697516341    0.4829645075874021    0.5445530649162889    
  0.5606037097602765    0.5879704111734579    0.5879703861576158    0.560603797668159    0.5445530148086638    
  0.5606037786669101    0.5879703846025609    0.5879704226228211    0.5606036786573273    0.5445530649162889    
  0.526575352955321    0.5587675534249453    0.6033956348969453    0.5879704577016012    0.5389662079504196    
  0.516291873346175    0.5389662251910383    0.5879704357438975    0.6033956645019424    0.5587675167867989    
  0.526575352955321    0.4044733453128105    0.4627775368349068    0.5587675756559292    0.5606037408241104    
  0.5004245957493827    0.4708341796107795    0.500424591137073    0.5606037071747701    0.5587675934181198    
  0.4627775321349776    0.4044733453128105    0.3368447537852945    0.40447331300003897    0.5265753419885305    
  0.5445530305517425    0.48296448257472846    0.4506951037541913    0.48296449488796117    0.5445530635308146    
  0.5265753278935345    0.4044733087460965    0.3368447537852945    0.5081644858787411    0.5274250353834004    
  0.5445530405821586    0.5162918345857977    0.4708342517704455    0.45069504883292266    0.4708342306163924    
  0.5162918512397273    0.5445530653985131    0.5274250470229498    0.5081644858787411    0.5274250609188597    
  0.5440196225404648    0.5606037511795329    0.5389663230629335    0.5004245352132923    0.4829645608253983    
  0.5004245333501072    0.5389662930901121    0.5606037719426893    0.5440196186146118    0.5274250609188597    
  0.5445530768169731    0.5606036860717409    0.5879704420856093    0.587970367415281    0.5606037813658922    
  0.5445529788029038    0.5606037554107532    0.5879703972440066    0.5879704195772255    0.5606036654698738    
  0.5445530768169731    0.5162918480719423    0.5389662669190293    0.5879703935063112    0.6033956508443212    
  0.5587675117421367    0.5265753762848389    0.5587674832169194    0.6033956655042074    0.5879704315628618    
  0.538966282979385    0.5162918480719423    0.470834266480296    0.5004245014983444    0.560603818973314    
  0.5587675132538166    0.46277757821602544    0.40447325961875047    0.4627776310458663    0.5587674801269716    
  0.5606037880864155    0.5004245192210864    0.470834266480296    0.4506950004610014    0.48296457426585726    
  0.5445530054442981    0.5265753820444299    0.40447329014431055    0.3368447933352082    0.40447328809485694    
  0.5265754130354341    0.5445530075272894    0.48296455945962696    0.4506950004610014    0.4708342820606073    
  0.5004245256338837    0.5606038048174559    0.5587674872587504    0.4627776207994503    0.404473274360182    
  0.4627776085835088    0.5587674736123007    0.5606038046919547    0.5004245058048211    0.4708342820606073    
  0.5162918334102327    0.5389662971854127    0.5879703422159728    0.6033956573292434    0.5587674993867942    
  0.5265753713166501    0.5587675096937811    0.6033956795544471    0.5879703788775826    0.5389662836367333    
  0.5162918334102327    0.5445530576456307    0.5606036892835451    0.5879704379674469    0.5879703993951535    
  0.5606037543639348    0.5445530043730822    0.5606037444920368    0.5879703620228897    0.5879704902966932    
  0.5606036829449277    0.5445530576456307    0.5274250752334402    0.5440196345598209    0.5606037206501381    
  0.5389663036747272    0.5004245045811354    0.48296455260505256    0.5004245491565888    0.5389662886502636    
  0.5606037387047068    0.5440196042998127    0.5274250752334402    0.5081644858787411    0.5274250353834004    
  0.5445530405821586    0.5162918345857977    0.4708342517704455    0.45069504883292266    0.4708342306163924    
  0.5162918512397273    0.5445530653985131    0.5274250470229498    0.5081644858787411    0.4789337755551209    
  0.4825698791844788    0.4829645021864454    0.4708342518744199    0.45357013528619505    0.4450935426281192    
  0.45357009357634903    0.4708342657180119    0.48296449442149597    0.48256987940028406    0.4789337755551209    
  0.4825698846198683    0.48961775884645814    0.5004245722839503    0.5004245171482594    0.4896178204802925    
  0.482569824163784    0.48961779501488545    0.5004245536638394    0.5004245823988838    0.48961774078305126    
  0.4825698846198683    0.48296450017596465    0.5004246048178648    0.5389662482340538    0.5606037734975641    
  0.5440195496885242    0.5274251091155647    0.5440195557456886    0.5606037809532043    0.5389662697654063    
  0.5004245035111052    0.48296450017596465    0.4708342464143991    0.50042449463292    0.5606037820928845    
  0.5587675052343931    0.4627776198414273    0.40447328583991754    0.4627775880429433    0.5587674923975972    
  0.5606037830998495    0.500424521230721    0.4708342464143991    0.4535701369465885    0.48961778919927046    
  0.5440195879821556    0.462777622752051    0.2731759534346898    0.19280836309366847    0.2731759739215449    
  0.4627776089849693    0.5440195921103365    0.48961775890751297    0.4535701369465885    0.4450934957161398    
  0.48256980578508696    0.5274251171891435    0.4044732798904973    0.19280836711205368    0.11785152371129268    
  0.19280834477033132    0.4044733087315953    0.5274251127041161    0.48256986456399625    0.4450934957161398    
  0.4535700943626426    0.48961779480685447    0.544019561611131    0.46277762721777965    0.27317594702129394    
  0.19280837015418026    0.2731759806700616    0.46277761242876864    0.5440195615951662    0.48961779706957076    
  0.4535700943626426    0.4708342696646978    0.5004245423467466    0.5606037992323873    0.5587674969981302    
  0.46277759863748547    0.40447329583786423    0.46277756293379635    0.5587675092697854    0.5606038132311585    
  0.5004245129987521    0.4708342696646978    0.4829644700639717    0.5004245711144528    0.5389662421024634    
  0.5606037919032936    0.5440195617987893    0.527425113067091    0.544019619165891    0.5606037206788965    
  0.5389662664627359    0.5004245637999692    0.4829644700639717    0.48256989289919494    0.4896177748990174    
  0.5004245976459661    0.5004245306630518    0.4896177711241867    0.4825698336314718    0.4896178110834971    
  0.5004245113502617    0.5004246273510212    0.48961774300079985    0.48256989289919494    0.4789337755551209    
  0.4825698791844788    0.4829645021864454    0.4708342518744199    0.45357013528619505    0.4450935426281192    
  0.45357009357634903    0.4708342657180119    0.48296449442149597    0.48256987940028406    0.4789337755551209    
  0.44095845614835155    0.44509345606689754    0.45069511968051656    0.45069502497992275    0.4450935233853071    
  0.4409584095005838    0.4450935061542929    0.4506950549910298    0.45069508268457437    0.44509344985068994    
  0.44095845614835155    0.4450934660431916    0.4535701786020663    0.47083423150350817    0.4829645980900894    
  0.4825698412279803    0.4789338260413766    0.4825698563259328    0.4829645457067605    0.470834244582243    
  0.4535701723894778    0.4450934660431916    0.4506950957220905    0.4708342004271083    0.5162918879725455    
  0.5445530104468642    0.5274251027046677    0.5081644466824384    0.5274250854005231    0.5445530347488721    
  0.5162919080146152    0.47083416253675675    0.4506950957220905    0.45069503866172445    0.48296455258924936    
  0.5445530225227738    0.5265754053968241    0.40447327440531056    0.33684478334522006    0.4044732875830571    
  0.5265753800509508    0.5445530744908653    0.48296453625669183    0.45069503866172445    0.44509353760491377    
  0.482569823073586    0.5274251255578081    0.40447329661948966    0.19280835381359013    0.11785150819930039    
  0.19280838930364405    0.4044732698183587    0.5274251397742116    0.4825698047627137    0.44509353760491377    
  0.44095838596209674    0.47893383830684705    0.5081644829617052    0.3368447753544496    0.11785152750073861    
  0.05730596200180189    0.11785150984799057    0.3368447715997802    0.5081644639771705    0.47893380606260766    
  0.44095838596209674    0.44509354908709703    0.4825698384755452    0.5274251226221089    0.40447331062193315    
  0.19280836467480808    0.11785150820036504    0.19280837185316776    0.4044732955195789    0.5274251548889126    
  0.4825698301326312    0.44509354908709703    0.45069502524784094    0.4829645613096165    0.5445529731536244    
  0.5265753968444769    0.40447330605383547    0.3368447832566072    0.40447327273237477    0.5265753814745279    
  0.5445530002160899    0.4829645233413062    0.45069502524784094    0.4506950771080124    0.47083421784592105    
  0.5162918804381237    0.5445530374054495    0.5274250830596093    0.5081644331131461    0.5274251109211714    
  0.5445530086447927    0.5162919218562443    0.4708341858072241    0.4506950771080124    0.4450934850862605    
  0.45357017083040657    0.4708342085181956    0.4829645567424331    0.4825698552617395    0.47893380755722526    
  0.48256985159776267    0.48296452249258687    0.47083424060484624    0.4535701746483201    0.4450934850862605    
  0.44095845614835155    0.44509345606689754    0.45069511968051656    0.45069502497992275    0.4450935233853071    
  0.4409584095005838    0.4450935061542929    0.4506950549910298    0.45069508268457437    0.44509344985068994    
  0.44095845614835155    0.47893377527039405    0.48256987844284505    0.4829644813709671    0.4708342570624627    
  0.4535701081469356    0.44509354129479267    0.45357009565098483    0.4708342671741983    0.48296452065596196    
  0.48256987394841994    0.47893377527039405    0.4825698768519972    0.48961777929845113    0.5004245857639364    
  0.5004245319010678    0.48961781814576427    0.48256983135478876    0.4896177899069746    0.5004245270985266    
  0.5004246077336855    0.4896177210759457    0.4825698768519972    0.4829644964120329    0.5004245858526306    
  0.538966211452887    0.5606037839030713    0.5440195467845033    0.5274251188126207    0.5440195810300121    
  0.5606037670185979    0.5389662361511578    0.500424519963386    0.4829644964120329    0.4708342571280918    
  0.5004245053549836    0.5606037828832555    0.5587674949093134    0.4627776236739981    0.40447326200467715    
  0.46277760101464066    0.558767477144567    0.5606038203592414    0.5004245195345648    0.4708342571280918    
  0.4535701352790079    0.4896177858321226    0.5440195814831622    0.4627776436897185    0.27317595435950986    
  0.1928083669721365    0.2731759708339869    0.462777573550664    0.5440195944704194    0.48961779368719077    
  0.4535701352790079    0.44509349246183894    0.4825698433541263    0.5274251165962951    0.4044732876482736    
  0.19280835585347977    0.11785152291765189    0.19280835078252392    0.4044733198321638    0.5274251122264066    
  0.48256983829011824    0.44509349246183894    0.4535701233287752    0.48961779280067463    0.5440195754416065    
  0.46277762505235315    0.27317596492431256    0.19280836473852223    0.2731759807939537    0.4627776052986105    
  0.5440195847876599    0.489617794565205    0.4535701233287752    0.47083423711480493    0.5004245320821236    
  0.5606038025864424    0.5587674770914788    0.4627775984481008    0.4044732769111508    0.4627775827227849    
  0.5587675143153958    0.5606038028797146    0.5004245151828781    0.47083423711480493    0.4829644789852179    
  0.500424569622905    0.5389662309213893    0.560603786561696    0.5440195582428167    0.5274251151858544    
  0.5440195928950304    0.560603741424978    0.5389662835909286    0.5004245869478049    0.4829644789852179    
  0.4825698908014029    0.48961775776058625    0.5004246218447849    0.5004245193200539    0.48961781535558085    
  0.48256984409469716    0.4896178137737453    0.5004245168973704    0.5004245839625671    0.4896177354634323    
  0.4825698908014029    0.47893377527039405    0.48256987844284505    0.4829644813709671    0.4708342570624627    
  0.4535701081469356    0.44509354129479267    0.45357009565098483    0.4708342671741983    0.48296452065596196    
  0.48256987394841994    0.47893377527039405    0.5081645052850225    0.5274250323798407    0.5445530650572729    
  0.5162918061596031    0.4708342525968869    0.45069507123687086    0.4708342482954999    0.5162918429475113    
  0.544553048969474    0.5274250421592849    0.5081645052850225    0.5274250512291841    0.5440196050421289    
  0.560603739614828    0.5389663126230806    0.5004245493395865    0.4829645053217089    0.5004245618883788    
  0.5389662892655888    0.5606037942357981    0.5440196286088503    0.5274250512291841    0.5445530584104228    
  0.5606037407677682    0.5879704412885963    0.58797036137092    0.5606037746374773    0.5445529643827446    
  0.5606037584171218    0.5879703742729769    0.58797043486695    0.5606036583828103    0.5445530584104228    
  0.5162918204774517    0.5389662475994748    0.5879704266721174    0.6033956365449918    0.5587675116546231    
  0.5265753734026763    0.5587674623953024    0.6033957028110453    0.5879704062439175    0.5389662740910701    
  0.5162918204774517    0.4708342565495754    0.5004245356024507    0.5606037831407032    0.5587675427437456    
  0.46277757281121423    0.40447327053962845    0.4627776334104502    0.5587674811652692    0.5606037749156767    
  0.5004245051293552    0.4708342565495754    0.45069500532868134    0.4829645461060789    0.5445529838027664    
  0.526575367837911    0.40447328949773714    0.33684479972207526    0.4044732753507739    0.526575436816962    
  0.5445530006759501    0.48296457482712607    0.45069500532868134    0.4708342775824549    0.5004245336413122    
  0.5606037967238745    0.5587675182447521    0.4627776006578744    0.40447327492239593    0.4627775963231211    
  0.5587674673204506    0.5606038074421587    0.5004245165302552    0.4708342775824549    0.5162918534445688    
  0.5389662774860323    0.5879703434153465    0.6033956814273989    0.5587675219098073    0.5265753817824791    
  0.5587675164199861    0.6033956781236943    0.5879703759521155    0.5389662579989336    0.5162918534445688    
  0.5445530760720919    0.5606037201010944    0.5879704410275356    0.5879704080738146    0.5606037391096695    
  0.5445529961526084    0.56060374976567    0.5879703901091867    0.5879704775111995    0.5606036969019882    
  0.5445530760720919    0.5274250694879468    0.5440196101190892    0.5606037330464596    0.5389663212760337    
  0.5004245244792817    0.48296452056494577    0.500424539775273    0.5389662827888692    0.5606037640587586    
  0.5440196011415359    0.5274250694879468    0.5081645052850225    0.5274250323798407    0.5445530650572729    
  0.5162918061596031    0.4708342525968869    0.45069507123687086    0.4708342482954999    0.5162918429475113    
  0.544553048969474    0.5274250421592849    0.5081645052850225    0.33684474049083485    0.4044733204967141    
  0.5265753304156271    0.5445530426504737    0.48296449253000023    0.4506950909637354    0.48296447193030567    
  0.544553067276479    0.5265753307724814    0.40447332190976193    0.33684474049083485    0.4044733278947264    
  0.4627775422688038    0.5587675659719902    0.5606037559075899    0.5004245948400652    0.4708342215510365    
  0.5004245916340463    0.560603736873631    0.5587675907433776    0.4627775433178708    0.4044733278947264    
  0.5265753514074726    0.5587675315969232    0.6033956274601344    0.5879704288919708    0.5389662499163015    
  0.5162918877483246    0.538966204094495    0.5879704633686407    0.6033956062654784    0.5587674969338915    
  0.5265753514074726    0.5445530705260451    0.5606036852982307    0.5879704438246867    0.5879703626026478    
  0.5606037825350816    0.5445529855977765    0.5606037740356018    0.5879703722036497    0.587970496694741    
  0.5606037063959614    0.5445530705260451    0.4829644972324901    0.5004245586823617    0.5389662890793432    
  0.5606037948446304    0.5440195699434502    0.5274250779420121    0.5440195939646203    0.560603765473652    
  0.5389662523983625    0.5004245742514997    0.4829644972324901    0.45069505736829213    0.4708342306944228    
  0.5162918805105228    0.5445530100294933    0.5274251196678326    0.5081644450516465    0.5274251093638672    
  0.5445530241102696    0.5162919020004375    0.4708342156194237    0.45069505736829213    0.48296451680390173    
  0.5004245698233583    0.5389662810681382    0.5606037568932415    0.5440195847913293    0.5274251043470731    
  0.5440195776003208    0.5606037558695333    0.5389662777398214    0.5004245521561267    0.48296451680390173    
  0.5445530523824661    0.5606037159875302    0.5879703920873206    0.5879703818598289    0.5606037736293971    
  0.5445530099803512    0.5606037791036586    0.5879703931550384    0.5879704366333144    0.5606037057710467    
  0.5445530523824661    0.5265753280930164    0.5587675198426753    0.6033956303401726    0.587970443750602    
  0.5389662307841662    0.5162918757481476    0.5389662197324471    0.5879704287488582    0.6033956691025792    
  0.5587675170630592    0.5265753280930164    0.40447335272808954    0.4627775569009358    0.5587675493340956    
  0.5606037493535059    0.5004245537025505    0.4708342237035898    0.5004246047609764    0.560603714326267    
  0.5587675789493278    0.4627775263181303    0.40447335272808954    0.33684474049083485    0.4044733204967141    
  0.5265753304156271    0.5445530426504737    0.48296449253000023    0.4506950909637354    0.48296447193030567    
  0.544553067276479    0.5265753307724814    0.40447332190976193    0.33684474049083485    0.11785154048760967    
  0.19280832285885807    0.4044733354889804    0.5274250483815452    0.4825699212210505    0.4450934998147016    
  0.4825698779665788    0.5274250690493462    0.4044733493918933    0.19280832362150802    0.11785154048760967    
  0.19280832858133715    0.27317602175087563    0.4627775532703805    0.5440196121385806    0.4896177664059796    
  0.45357013573924554    0.4896177393252705    0.5440196523223189    0.4627775702466895    0.2731760031544864    
  0.19280832858133715    0.4044733325450277    0.4627775639071135    0.5587675585978066    0.5606037163471166    
  0.5004245512315743    0.47083421542661863    0.5004245839886579    0.5606037134531359    0.558767568384105    
  0.46277748073472663    0.4044733325450277    0.5274250511321478    0.5440195804787755    0.5606037284484701    
  0.5389662916244953    0.5004245607355478    0.4829645403477592    0.500424511599546    0.5389662821720719    
  0.5606037531779516    0.5440196042350294    0.5274250511321478    0.4825699064571717    0.48961773829004673    
  0.5004245845330633    0.5004245384718028    0.4896177598908916    0.48256984218709725    0.4896178021347442    
  0.50042452469174    0.500424596745976    0.48961770799324783    0.4825699064571717    0.44509344603802936    
  0.4535701435355213    0.47083422598026636    0.48296454016510226    0.48256983845875784    0.4789338631424598    
  0.48256980799444843    0.4829645850092731    0.470834220303755    0.4535701827746551    0.44509344603802936    
  0.4825698715712015    0.4896177465922574    0.5004245737050999    0.5004245475232305    0.4896177818093121    
  0.4825698505635773    0.4896178096023598    0.5004245379840361    0.5004245764410119    0.48961774545411324    
  0.4825698715712015    0.5274250567981916    0.5440196312352527    0.5606037345207113    0.5389662903334294    
  0.5004245300881015    0.4829645468260086    0.5004244939165585    0.5389662962778494    0.5606037532156688    
  0.5440196052155931    0.5274250567981916    0.40447331188137353    0.46277754848254626    0.558767546716228    
  0.5606037433266875    0.5004245541038727    0.470834217197788    0.5004246150079313    0.560603679742384    
  0.5587675871059932    0.4627775339484543    0.40447331188137353    0.1928083321414395    0.2731760266701507    
  0.46277757505331485    0.5440196244946565    0.4896177225917757    0.45357015923952815    0.48961776052598843    
  0.54401959656734    0.46277758958577175    0.2731760043496793    0.1928083321414395    0.11785154048760967    
  0.19280832285885807    0.4044733354889804    0.5274250483815452    0.4825699212210505    0.4450934998147016    
  0.4825698779665788    0.5274250690493462    0.4044733493918933    0.19280832362150802    0.11785154048760967    
  0.05730594062213406    0.1178515442377972    0.3368447629348725    0.508164494027288    0.4789338100812634    
  0.4409584553332639    0.478933771287901    0.5081645349594168    0.3368447419488794    0.11785153483691176    
  0.05730594062213406    0.11785154508734735    0.19280833304503817    0.4044733557384044    0.5274250901463098    
  0.48256988827552433    0.4450934443885846    0.48256991463319926    0.5274250618414239    0.40447335390169087    
  0.1928083334451049    0.11785154508734735    0.3368447436506743    0.40447332872818137    0.5265753277566755    
  0.5445530646896444    0.4829645040828504    0.45069508821718673    0.482964477024745    0.5445530897162273    
  0.5265753641826681    0.404473294803212    0.3368447436506743    0.5081645105997644    0.5274250600436939    
  0.5445530693527943    0.5162918530265606    0.47083425115460126    0.45069502396462086    0.4708342752626051    
  0.5162918322396286    0.5445531140642678    0.5274250493934759    0.5081645105997644    0.47893379306490974    
  0.4825698779697782    0.4829645162773804    0.47083427251367616    0.4535701152292173    0.4450935084838659    
  0.4535701491639585    0.470834247931619    0.4829645162597625    0.48256987708552534    0.47893379306490974    
  0.44095844096669007    0.44509346376954817    0.4506951080474553    0.45069502875446    0.4450935253286471    
  0.44095839894055316    0.445093496223833    0.4506950192749778    0.4506951055019089    0.4450934263443655    
  0.44095844096669007    0.4789338252117335    0.48256988141107815    0.4829644998433677    0.4708342945645041    
  0.45357011512379714    0.4450935093127347    0.45357013655546036    0.4708342659926515    0.48296454366855374    
  0.4825698761999557    0.4789338252117335    0.508164494028255    0.5274250655893632    0.5445530344980667    
  0.5162918409414184    0.4708342791886908    0.4506950295409121    0.4708342489443816    0.5162918298915616    
  0.5445530645305974    0.5274250211628709    0.508164494028255    0.3368447330071938    0.40447333926886325    
  0.5265753319279329    0.5445530986864823    0.48296447837192075    0.45069506484984645    0.4829645139389462    
  0.5445530529240279    0.5265753757986816    0.40447330387112024    0.3368447330071938    0.11785155896437112    
  0.19280833408099757    0.4044733280280087    0.5274250673750528    0.48256989962527996    0.4450934359194614    
  0.4825698981443829    0.5274250370934571    0.40447335640248283    0.19280833358842997    0.11785155896437112    
  0.05730594062213406    0.1178515442377972    0.3368447629348725    0.508164494027288    0.4789338100812634    
  0.4409584553332639    0.478933771287901    0.5081645349594168    0.3368447419488794    0.11785153483691176    
  0.05730594062213406    
  END_DATAGRID_3D    
  END_BLOCK_DATAGRID_3D    