#     DFTpy    
  CRYSTAL 
    
  PRIMVEC    
  1.0753261895669963    -1.8625195950394795    0.0    
  1.0753261895669963    1.8625195950394795    0.0    
  0.0    0.0    2.024111533862069    
  PRIMCOORD    
  1    1    
  Si    0.0    0.0    0.0    
  BEGIN_BLOCK_DATAGRID_3D    
  3d_datagrid_density    
  BEGIN_DATAGRID_3D#0    
  11    11    9    
  0.0    0.0    0.0    
  1.0753261895669963    -1.8625195950394795    0.0    
  1.0753261895669963    1.8625195950394795    0.0    
  0.0    0.0    2.024111533862069    
  0.05253901850009243    0.09246684613518391    0.2555994735772873    0.5025264449564913    0.6396090908474225    
  0.6638640738147111    0.6396091169110841    0.502526328942178    0.25559949105666413    0.09246683237401829    
  0.05253901850009243    0.09246680547963607    0.09250528492483336    0.19730510019187728    0.4181800490182971    
  0.6019987531683265    0.6563840859300214    0.6563664672440391    0.6020283424280213    0.41814915526569185    
  0.19733609972258723    0.09246680547963607    0.2555995140489201    0.1973051374897679    0.2555554255604472    
  0.41817712518425176    0.5816647863073677    0.6441357955404285    0.64976330130094    0.6441172233279833    
  0.5816811460704733    0.4181492104968822    0.2555995140489201    0.5025264391754649    0.41818014682082216    
  0.41817708561750533    0.502583552252182    0.6019990432850268    0.6441323992528155    0.6434325386314926    
  0.6434584899955338    0.6441172155713382    0.602028390012075    0.5025264391754649    0.6396091007911426    
  0.6019988552733797    0.5816646842316078    0.6019989799408365    0.6395629403231888    0.6563825820501151    
  0.6497634326458377    0.6434325478236057    0.6497632277724454    0.6563664910860169    0.6396091007911426    
  0.6638639882077813    0.6563841465801402    0.6441357655547648    0.6441324760922514    0.6563825222067448    
  0.6638991357754692    0.6563825379552747    0.6441324473113278    0.6441357394833371    0.6563841637079697    
  0.6638639882077813    0.6396090953640049    0.656366443557392    0.6497632358969868    0.6434325034459568    
  0.6497635418203367    0.6563825397005782    0.6395629717818446    0.6019990823118893    0.5816647650091856    
  0.6019987674653726    0.6396090953640049    0.5025263676590155    0.6020283690728271    0.6441171457155926    
  0.6434585074703374    0.6434324531433072    0.6441323798230211    0.6019991535298472    0.5025835149356458    
  0.4181770138974258    0.41818013692411615    0.5025263676590155    0.25559951342609255    0.41814918528449657    
  0.5816812446703317    0.6441172467012423    0.6497632552849939    0.6441357617514616    0.5816647608724248    
  0.4181771419936353    0.2555554224632493    0.1973051523386757    0.25559951342609255    0.09246679613661954    
  0.19733613748935808    0.41814912328517434    0.6020283807728488    0.656366425637617    0.6563841723497407    
  0.6019988226066941    0.4181800607635136    0.19730509342346775    0.09250529628115833    0.09246679613661954    
  0.05253901850009243    0.09246684613518391    0.2555994735772873    0.5025264449564913    0.6396090908474225    
  0.6638640738147111    0.6396091169110841    0.502526328942178    0.25559949105666413    0.09246683237401829    
  0.05253901850009243    0.11508429441963586    0.1657609275490481    0.3290209086818983    0.5209553451042701    
  0.6032978086971466    0.6118892906594056    0.6032977769144264    0.520955276253108    0.32902092319424586    
  0.16576092662651892    0.11508429441963586    0.16576089297708688    0.1657717771354348    0.2756368518351434    
  0.4606482818766561    0.5828421443982408    0.6066928755878022    0.6066903156808208    0.5828506434966998    
  0.4606317747587325    0.27564930318639014    0.16576089297708688    0.3290209510774014    0.2756369199312588    
  0.32901329507688537    0.46063824882164206    0.570403369832355    0.5980900050555551    0.5947975928239557    
  0.5980813428535465    0.5704172359098185    0.460631884825868    0.3290209510774014    0.5209553549026325    
  0.46064838465315744    0.4606381759558539    0.52097701554238    0.5828367184579826    0.598102877883782    
  0.5874006501592209    0.5874205155418263    0.5980813437807375    0.582850648384348    0.5209553549026325    
  0.6032977828783119    0.5828422087993066    0.5704032804522589    0.5828365663178887    0.6032904426342344    
  0.6066914469516007    0.59479069836645    0.5874005784090078    0.594797542283687    0.6066904071110271    
  0.6032977828783119    0.6118892145082545    0.6066929891048981    0.5980899682324711    0.598102949677994    
  0.6066913561763908    0.6118980434610649    0.6066913550219182    0.5981028871974071    0.5980899254685013    
  0.6066929568737737    0.6118892145082545    0.6032977362876476    0.6066903556512554    0.5947974763418612    
  0.587400640167173    0.5947907261200311    0.606691401382155    0.6032904162950571    0.5828367315357873    
  0.5704033929855117    0.5828421290107582    0.6032977362876476    0.520955339838313    0.582850672693118    
  0.5980813925329301    0.5874205280028915    0.5874005943286063    0.5981028679000324    0.5828367846798539    
  0.5209769424095365    0.46063814306853923    0.46064835942255156    0.520955339838313    0.3290209919679485    
  0.46063183295193827    0.5704172771967828    0.5980814032292711    0.5947975098555448    0.5980899916994981    
  0.5704033897664416    0.46063820009519046    0.32901331737579714    0.2756369579899049    0.3290209919679485    
  0.1657608841818592    0.27564939298827934    0.46063178154878415    0.5828506745096541    0.6066902767524464    
  0.6066930018905904    0.5828421231374343    0.4606483160857923    0.2756368797764115    0.16577178418070412    
  0.1657608841818592    0.11508429441963586    0.1657609275490481    0.3290209086818983    0.5209553451042701    
  0.6032978086971466    0.6118892906594056    0.6032977769144264    0.520955276253108    0.32902092319424586    
  0.16576092662651892    0.11508429441963586    0.38146861698589024    0.42063355278474307    0.499860665634381    
  0.5362501256462099    0.5153056427066127    0.4977293997891176    0.5153056794160719    0.5362500656813062    
  0.4998607020838112    0.4206335556295667    0.38146861698589024    0.4206334768768338    0.42062351627121725    
  0.4794961330886718    0.5310651518734977    0.5244612746799211    0.49590138216909757    0.4959055990468126    
  0.5244593207720568    0.5310628376462307    0.4794972450029457    0.4206334768768338    0.4998606786970756    
  0.47949620900205947    0.49987158342150956    0.5310651696360956    0.5260135935763086    0.4927029172239279    
  0.4749051634660037    0.49269856275387836    0.5260209864007337    0.5310629282395041    0.4998606786970756    
  0.536250097027028    0.5310653377556678    0.5310651455299981    0.5362400564561431    0.524456920905977    
  0.4927077763580439    0.46571728789169364    0.4657269773341009    0.4926985924518518    0.5244593505289767    
  0.536250097027028    0.51530564039628    0.5244613406727339    0.5260134941844113    0.5244569251940445    
  0.5153206394066071    0.49590104453583095    0.4749049729019952    0.46571729461680755    0.474905125335417    
  0.495905629299839    0.51530564039628    0.49772935690931097    0.49590142787260355    0.49270289843203197    
  0.4927078254345239    0.4959010369891928    0.4977196440194928    0.49590098236362695    0.49270776225435947    
  0.4927028372025581    0.4959013868639507    0.49772935690931097    0.5153055844990921    0.4959056234736971    
  0.47490515470998546    0.46571726688916815    0.4749049974387242    0.4959010046828226    0.5153206458319988    
  0.5244569874752807    0.5260135263123616    0.5244612548989366    0.5153055844990921    0.5362500461215994    
  0.5244593737440193    0.4926985718613017    0.46572701584139164    0.4657172880362624    0.49270780998215224    
  0.524457054186382    0.5362400564130758    0.5310650333022899    0.5310653183657966    0.5362500461215994    
  0.4998606915184743    0.5310628910172264    0.5260210464154331    0.49269858792624094    0.4749051423371299    
  0.49270287530875556    0.5260135558160618    0.5310651541343671    0.4998716075903936    0.47949620798400333    
  0.4998606915184743    0.42063346206854985    0.4794972935977563    0.531062771384382    0.5244593423175501    
  0.4959055255145186    0.49590140003797784    0.5244612520723518    0.5310651929852569    0.4794961845655065    
  0.42062351113864577    0.42063346206854985    0.38146861698589024    0.42063355278474307    0.499860665634381    
  0.5362501256462099    0.5153056427066127    0.4977293997891176    0.5153056794160719    0.5362500656813062    
  0.4998607020838112    0.4206335556295667    0.38146861698589024    0.705409704591284    0.6816386471270968    
  0.6099610556397667    0.5109392044353893    0.4296535113428699    0.3994457681479936    0.42965349326763785    
  0.5109391544569679    0.6099609930553254    0.681638693924454    0.705409704591284    0.6816385773209328    
  0.6816286802258459    0.6331399876280093    0.545196346084236    0.45381243953761524    0.3988116993727563    
  0.39881294448103877    0.45380971109979085    0.545198808257431    0.633137025793797    0.6816385773209328    
  0.609961027805251    0.633140096328492    0.6099662870480085    0.5451988299983199    0.46254973224094326    
  0.39752430052317805    0.3736088352150757    0.39752587931525346    0.4625500030247243    0.5451988043806449    
  0.609961027805251    0.5109392093665779    0.5451965282242821    0.5451988071074182    0.5109352199461878    
  0.45380792423555083    0.3975291948316304    0.36385506970322506    0.3638555362288891    0.3975258366137961    
  0.4538097466278081    0.5109392093665779    0.42965347397531306    0.4538125319782883    0.46254968731369994    
  0.4538078386885747    0.42966018126885663    0.3988119619426127    0.3736063681221848    0.3638550065245416    
  0.3736088037002028    0.39881296807036093    0.42965347397531306    0.3994457107902587    0.39881178538436646    
  0.3975242711920475    0.3975292755819294    0.3988118905435047    0.39944116511788635    0.39881190234466324    
  0.39752919645584095    0.39752422173530483    0.39881176899002946    0.3994457107902587    0.42965344332423294    
  0.39881297796537973    0.3736087428825179    0.36385506334719087    0.37360637412859055    0.39881190385612103    
  0.42966020979659714    0.4538079863930125    0.4625497481080832    0.45381239164219045    0.42965344332423294    
  0.5109391706566101    0.4538097634734533    0.39752587322968314    0.3638555644460809    0.36385502761091304    
  0.3975292120187296    0.45380798716344795    0.5109351542315561    0.5451987684248143    0.5451964307770963    
  0.5109391706566101    0.609961084427553    0.5451987971499858    0.4625499781717148    0.39752591695601625    
  0.373608763490882    0.39752427161477694    0.4625497599339385    0.5451988435552131    0.6099663268115415    
  0.6331401072062545    0.609961084427553    0.6816385832450751    0.6331371686277188    0.5451988198677453    
  0.4538097158095024    0.39881291183103684    0.3988118093868888    0.4538124112540584    0.5451963726390461    
  0.6331400276026226    0.6816286598989618    0.6816385832450751    0.705409704591284    0.6816386471270968    
  0.6099610556397667    0.5109392044353893    0.4296535113428699    0.3994457681479936    0.42965349326763785    
  0.5109391544569679    0.6099609930553254    0.681638693924454    0.705409704591284    0.8097498831833786    
  0.7568083865123197    0.6281837084434556    0.4902903025744288    0.3956357183224801    0.36325254065447554    
  0.3956357447270345    0.49029018083510334    0.6281837250086828    0.7568083320134775    0.8097498831833786    
  0.7568082596650914    0.7567985287262875    0.6661369192652171    0.5345734901517907    0.4225285094928203    
  0.3626805204546757    0.36268218933385954    0.4225241960641794    0.5345725206358728    0.6661376154351313    
  0.7568082596650914    0.6281837353161794    0.6661370137437979    0.6281942491615734    0.5345696224357265    
  0.4325308261604622    0.3615194223718056    0.336979458132743    0.3615231340209386    0.4325336805924244    
  0.5345725738025434    0.6281837353161794    0.4902902627667285    0.534573600859231    0.5345695826318754    
  0.4902864358853619    0.42252924736754394    0.36152249718592716    0.3273609582899481    0.32735140330627593    
  0.3615231436151085    0.4225242406050161    0.4902902627667285    0.39563570257210334    0.42252861045155793    
  0.43253075604162816    0.42252920516811426    0.39563306032947837    0.36268451466417806    0.33697113856745775    
  0.327360962926483    0.3369794028622112    0.3626821985444678    0.39563570257210334    0.3632524613961587    
  0.36268057206952653    0.3615193972238469    0.36152254941512907    0.3626844601401958    0.36324921822791356    
  0.3626844713732595    0.36152252099533255    0.36151937947491614    0.36268056275879507    0.3632524613961587    
  0.3956357058224158    0.3626821775565005    0.3369794237729306    0.3273609117491836    0.33697121675259684    
  0.3626844773843912    0.39563306251259484    0.4225292979595595    0.4325308114289531    0.4225285188280431    
  0.3956357058224158    0.49029018551187675    0.42252423810926637    0.361523072772936    0.3273514054518639    
  0.32736090023420156    0.3615224855111894    0.4225293586197366    0.4902864049165574    0.5345695189317202    
  0.5345735776867265    0.49029018551187675    0.6281837422151235    0.5345725393885156    0.4325337504835245    
  0.36152314453743223    0.3369794295268093    0.3615193897863524    0.4325308075022046    0.534569641376179    
  0.6281942214951695    0.6661369963066189    0.6281837422151235    0.7568082480137878    0.6661376772771704    
  0.5345724764668224    0.422524231633247    0.36268214734300014    0.362680576201267    0.4225285793666218    
  0.5345735104584045    0.6661369271859068    0.7567985573177272    0.7568082480137878    0.8097498831833786    
  0.7568083865123197    0.6281837084434556    0.4902903025744288    0.3956357183224801    0.36325254065447554    
  0.3956357447270345    0.49029018083510334    0.6281837250086828    0.7568083320134775    0.8097498831833786    
  0.7054096602123795    0.6816386691947497    0.6099609763019259    0.5109392070864551    0.4296534887742162    
  0.39944577375128115    0.42965345752597994    0.5109391486249011    0.6099610027831023    0.6816386792685066    
  0.7054096602123795    0.6816385798313017    0.6816286525621559    0.6331399726904563    0.5451963417742202    
  0.45381243779211955    0.39881169337281036    0.3988129246692536    0.4538097143588649    0.5451987580926279    
  0.63313699864183    0.6816385798313017    0.6099610052520079    0.6331400971230219    0.6099662853949086    
  0.5451988818105059    0.462549741002302    0.3975242987283849    0.37360884395518723    0.3975258642504747    
  0.46254995055555365    0.5451988676583773    0.6099610052520079    0.5109392107499675    0.5451964584525465    
  0.5451988161461895    0.5109351981090142    0.4538079413120255    0.3975292117400265    0.3638550813745933    
  0.3638555682841581    0.3975258850717279    0.4538097140432424    0.5109392107499675    0.42965346001081517    
  0.4538125036305753    0.4625496819299421    0.45380781451482527    0.4296602175219104    0.39881195736818803    
  0.3736063711546488    0.3638550261339186    0.3736088187974331    0.3988129859339878    0.42965346001081517    
  0.3994457019820947    0.39881179521487087    0.3975242652246783    0.3975292477405497    0.3988118886662497    
  0.3994411929013363    0.3988118764769482    0.39752919776025647    0.3975242360494808    0.39881175166141586    
  0.3994457019820947    0.4296534229918619    0.3988129616896155    0.37360875073190025    0.3638550485026541    
  0.37360637698179044    0.3988119152742282    0.4296601996165017    0.4538079481829657    0.46254980445669025    
  0.45381241331718813    0.4296534229918619    0.5109391969912844    0.4538097388043557    0.39752590341754473    
  0.3638555617398939    0.36385502676651005    0.3975291922747085    0.45380800545293937    0.5109351556102548    
  0.5451987796626326    0.5451964392769315    0.5109391969912844    0.6099610854500883    0.5451988328640964    
  0.4625499739162879    0.3975259022413218    0.3736087856175703    0.39752428085793573    0.46254977474953474    
  0.5451988456533892    0.6099663169103046    0.633140166378208    0.6099610854500883    0.6816386007549603    
  0.6331371653617722    0.5451987834565541    0.4538097373306774    0.3988128939811217    0.39881178515759774    
  0.45381241307852715    0.5451963861495105    0.6331400372355902    0.6816286774781317    0.6816386007549603    
  0.7054096602123795    0.6816386691947497    0.6099609763019259    0.5109392070864551    0.4296534887742162    
  0.39944577375128115    0.42965345752597994    0.5109391486249011    0.6099610027831023    0.6816386792685066    
  0.7054096602123795    0.38146862025383327    0.4206335530224176    0.4998606556720313    0.5362501095706419    
  0.5153056489635276    0.4977293980195968    0.5153056740389634    0.5362500724616379    0.4998606911365161    
  0.42063355925842233    0.38146862025383327    0.4206334626131808    0.4206235121319463    0.47949613176878464    
  0.5310651595634305    0.5244612822038703    0.49590137729688394    0.49590558827514974    0.5244593254223068    
  0.5310628336488126    0.47949725318519765    0.4206334626131808    0.4998606784523882    0.4794961932056356    
  0.499871584546173    0.5310651804151985    0.5260136049544536    0.492702916467922    0.47490515009403217    
  0.49269857263693706    0.5260209844339757    0.5310629246899606    0.4998606784523882    0.5362500825188051    
  0.5310653378707255    0.531065145923761    0.536240061349772    0.5244569337087097    0.49270778676757215    
  0.4657173109130324    0.46572696738528235    0.49269859130157834    0.524459361956288    0.5362500825188051    
  0.5153056418129218    0.5244613434423887    0.5260135031597367    0.5244569313445423    0.5153206228912515    
  0.49590105811651053    0.47490497840257134    0.46571730475165757    0.4749051289743312    0.4959056186067203    
  0.5153056418129218    0.49772935983768546    0.4959014320980853    0.49270289977247655    0.4927078355195064    
  0.4959010164115007    0.4977196534631531    0.49590099411569294    0.4927077734951591    0.4927028498630045    
  0.49590140921797    0.49772935983768546    0.5153055837446774    0.495905625501155    0.4749051552897097    
  0.465717262545076    0.4749049768021113    0.495900993945056    0.5153206468207007    0.5244569947879252    
  0.5260135400940658    0.5244612633280759    0.5153055837446774    0.5362500440214538    0.5244593843521309    
  0.4926985717276352    0.46572700591146293    0.46571729238650356    0.49270780329819214    0.5244570334969225    
  0.5362400485796829    0.5310650450198278    0.5310653305075288    0.5362500440214538    0.4998607068701738    
  0.5310628922728815    0.5260210369706446    0.4926985875432939    0.47490514247750676    0.4927028686630002    
  0.5260135504720955    0.5310651587867116    0.49987160589185714    0.47949620594151154    0.4998607068701738    
  0.4206334789680093    0.47949728913410833    0.5310627689775795    0.5244593324394811    0.49590554746088633    
  0.4959013979633137    0.5244612624419213    0.5310651832810447    0.47949618065249033    0.4206235209104665    
  0.4206334789680093    0.38146862025383327    0.4206335530224176    0.4998606556720313    0.5362501095706419    
  0.5153056489635276    0.4977293980195968    0.5153056740389634    0.5362500724616379    0.4998606911365161    
  0.42063355925842233    0.38146862025383327    0.11508429869761305    0.1657609193159705    0.3290209398134936    
  0.520955362586544    0.6032978322106316    0.6118892876530009    0.6032978284976774    0.5209552819236374    
  0.32902091091009683    0.1657609236421495    0.11508429869761305    0.16576088527615013    0.165771794517405    
  0.2756368526355138    0.4606482597840658    0.5828421498274781    0.6066928906243181    0.6066903244001569    
  0.5828506454434235    0.46063183027817095    0.2756493123098922    0.16576088527615013    0.3290209386840228    
  0.2756369155317118    0.32901328497742277    0.4606382194999364    0.5704033270510882    0.5980900049926627    
  0.5947975898848761    0.5980813604173855    0.5704172748561261    0.4606318119050918    0.3290209386840228    
  0.5209553521053022    0.4606484196313734    0.4606381791991805    0.5209770260112363    0.5828366739431465    
  0.5981028941920903    0.5874006447854431    0.5874204880900559    0.5980813097967699    0.5828506663182331    
  0.5209553521053022    0.6032977816104711    0.5828422259156935    0.5704032947262999    0.5828365857123908    
  0.603290392202246    0.6066914466647548    0.5947907152715168    0.5874005666441747    0.594797549773658    
  0.6066903722327329    0.6032977816104711    0.6118892115574637    0.606692966288505    0.5980899685102931    
  0.5981029909432004    0.6066913547353877    0.6118980213238693    0.6066913847040328    0.5981028981456032    
  0.5980899273049655    0.6066929989174704    0.6118892115574637    0.6032977592795261    0.6066903706633459    
  0.5947974446207432    0.5874006491959092    0.5947907114035852    0.6066913848078781    0.6032904456347574    
  0.5828367483490023    0.5704033642809122    0.582842117441106    0.6032977592795261    0.520955322243787    
  0.582850705685029    0.5980813425522757    0.5874205091032642    0.5874005776774874    0.5981028822763386    
  0.582836764356944    0.5209769597919572    0.4606381411381738    0.46064836294194256    0.520955322243787    
  0.3290209972862271    0.4606318200733045    0.5704172718604688    0.5980813993774577    0.5947974873980812    
  0.5980899685514367    0.570403354995316    0.46063820115540777    0.3290133296070509    0.27563693195181144    
  0.3290209972862271    0.1657608726957201    0.27564940614043787    0.46063181354084415    0.5828506341269378    
  0.6066902924230634    0.6066930252919923    0.5828421044441763    0.46064832998407473    0.27563686652003444    
  0.16577179427130678    0.1657608726957201    0.11508429869761305    0.1657609193159705    0.3290209398134936    
  0.520955362586544    0.6032978322106316    0.6118892876530009    0.6032978284976774    0.5209552819236374    
  0.32902091091009683    0.1657609236421495    0.11508429869761305    0.05253901850009243    0.09246684613518391    
  0.2555994735772873    0.5025264449564913    0.6396090908474225    0.6638640738147111    0.6396091169110841    
  0.502526328942178    0.25559949105666413    0.09246683237401829    0.05253901850009243    0.09246680547963607    
  0.09250528492483336    0.19730510019187728    0.4181800490182971    0.6019987531683265    0.6563840859300214    
  0.6563664672440391    0.6020283424280213    0.41814915526569185    0.19733609972258723    0.09246680547963607    
  0.2555995140489201    0.1973051374897679    0.2555554255604472    0.41817712518425176    0.5816647863073677    
  0.6441357955404285    0.64976330130094    0.6441172233279833    0.5816811460704733    0.4181492104968822    
  0.2555995140489201    0.5025264391754649    0.41818014682082216    0.41817708561750533    0.502583552252182    
  0.6019990432850268    0.6441323992528155    0.6434325386314926    0.6434584899955338    0.6441172155713382    
  0.602028390012075    0.5025264391754649    0.6396091007911426    0.6019988552733797    0.5816646842316078    
  0.6019989799408365    0.6395629403231888    0.6563825820501151    0.6497634326458377    0.6434325478236057    
  0.6497632277724454    0.6563664910860169    0.6396091007911426    0.6638639882077813    0.6563841465801402    
  0.6441357655547648    0.6441324760922514    0.6563825222067448    0.6638991357754692    0.6563825379552747    
  0.6441324473113278    0.6441357394833371    0.6563841637079697    0.6638639882077813    0.6396090953640049    
  0.656366443557392    0.6497632358969868    0.6434325034459568    0.6497635418203367    0.6563825397005782    
  0.6395629717818446    0.6019990823118893    0.5816647650091856    0.6019987674653726    0.6396090953640049    
  0.5025263676590155    0.6020283690728271    0.6441171457155926    0.6434585074703374    0.6434324531433072    
  0.6441323798230211    0.6019991535298472    0.5025835149356458    0.4181770138974258    0.41818013692411615    
  0.5025263676590155    0.25559951342609255    0.41814918528449657    0.5816812446703317    0.6441172467012423    
  0.6497632552849939    0.6441357617514616    0.5816647608724248    0.4181771419936353    0.2555554224632493    
  0.1973051523386757    0.25559951342609255    0.09246679613661954    0.19733613748935808    0.41814912328517434    
  0.6020283807728488    0.656366425637617    0.6563841723497407    0.6019988226066941    0.4181800607635136    
  0.19730509342346775    0.09250529628115833    0.09246679613661954    0.05253901850009243    0.09246684613518391    
  0.2555994735772873    0.5025264449564913    0.6396090908474225    0.6638640738147111    0.6396091169110841    
  0.502526328942178    0.25559949105666413    0.09246683237401829    0.05253901850009243    
  END_DATAGRID_3D    
  END_BLOCK_DATAGRID_3D    