#     DFTpy    
  CRYSTAL 
    
  PRIMVEC    
  1.237980571182172    -2.144245248070661    0.0    
  1.237980571182172    2.144245248070661    0.0    
  0.0    0.0    2.3302796650344826    
  PRIMCOORD    
  1    1    
  Si    0.0    0.0    0.0    
  BEGIN_BLOCK_DATAGRID_3D    
  3d_datagrid_density    
  BEGIN_DATAGRID_3D#0    
  11    11    11    
  0.0    0.0    0.0    
  1.237980571182172    -2.144245248070661    0.0    
  1.237980571182172    2.144245248070661    0.0    
  0.0    0.0    2.3302796650344826    
  0.049751641065666305    0.09800259352115633    0.27345626980961396    0.43277053451364267    0.4338253318246453    
  0.41150783963693355    0.4338253179099276    0.43277053418948375    0.2734562881957427    0.09800259836625715    
  0.049751641065666305    0.09800259640675767    0.09788101908622031    0.21607304157633395    0.3937780169543033    
  0.441211214782736    0.408361761469093    0.4084325588413836    0.4411607882153683    0.3936882472035687    
  0.2160944440002042    0.09800259640675767    0.2734562759423605    0.2160730243204232    0.27373342788860333    
  0.39365776078295245    0.439332908247455    0.4040714966303762    0.381429898242661    0.40404434285759927    
  0.43948660916339194    0.39368827058638317    0.2734562759423605    0.43277056047627965    0.393777982481889    
  0.39365772412157884    0.43259198671299975    0.4411309198087873    0.40423278535014495    0.37068350632054187    
  0.3707564245501103    0.40404437148431105    0.44116082500375675    0.43277056047627965    0.43382529663632396    
  0.4412112647270369    0.4393329133005809    0.44113092630970246    0.43407566196690756    0.4083992139994903    
  0.3812974470508594    0.3706834788277815    0.3814298846010151    0.4084325764051767    0.43382529663632396    
  0.4115078392378056    0.4083617779341295    0.4040715129231615    0.4042327621289508    0.408399223473316    
  0.4112644510699091    0.4083992568769925    0.40423281857544313    0.40407151441973677    0.40836177332055695    
  0.4115078392378056    0.43382529812195847    0.4084326062967756    0.3814298901257271    0.37068344363477695    
  0.3812974628881336    0.40839921244423083    0.4340756541693881    0.44113090433149243    0.43933296705889796    
  0.4412113203614176    0.43382529812195847    0.4327705981198795    0.4411607792172204    0.4040443390076012    
  0.3707564299249003    0.3706834411705904    0.40423278174690025    0.44113092874979404    0.43259196334606104    
  0.393657765404731    0.39377802268223694    0.4327705981198795    0.2734562445196354    0.39368823589424856    
  0.43948660855635907    0.40404428764237826    0.38142985163162435    0.4040714995276552    0.43933296387400217    
  0.39365772638178476    0.27373346604252163    0.21607307479296314    0.2734562445196354    0.09800262789765365    
  0.2160944576245544    0.39368820552994477    0.441160761523459    0.4084326464956785    0.4083617721857438    
  0.4412112029113209    0.39377804444245085    0.21607307484842453    0.09788102861881741    0.09800262789765365    
  0.049751641065666305    0.09800259352115633    0.27345626980961396    0.43277053451364267    0.4338253318246453    
  0.41150783963693355    0.4338253179099276    0.43277053418948375    0.2734562881957427    0.09800259836625715    
  0.049751641065666305    0.09486216179175633    0.15198097886398018    0.31620018200582684    0.42754912960399605    
  0.4070352118113667    0.3823527928601063    0.4070351845628097    0.42754912686054547    0.3162001677304301    
  0.15198095152763372    0.09486216179175633    0.1519809894372583    0.15182520661421348    0.2673778432317135    
  0.4052761047362896    0.4194548578649101    0.3799836278187828    0.3800444742085915    0.4194040179758412    
  0.4052227193448295    0.26737297769534796    0.1519809894372583    0.3162001418271824    0.26737782514114405    
  0.31646440866079456    0.4051804355377007    0.4208506901844751    0.37695973352778833    0.35365258689205137    
  0.37694528552847756    0.4209573231662925    0.4052227144655352    0.3162001418271824    0.42754912813439644    
  0.405276143091942    0.40518042874572363    0.4273867123730719    0.41939516963915424    0.3770795662271232    
  0.34338412855870243    0.34343289904707847    0.37694528956732215    0.4194040668151995    0.42754912813439644    
  0.407035161145218    0.4194548502134041    0.42085073708026344    0.4193951479731811    0.4072411521351255    
  0.3800103652096699    0.35355854988048796    0.34338410921541657    0.35365261372242046    0.3800444707004313    
  0.407035161145218    0.3823527799384354    0.37998362040626055    0.37695976986790297    0.3770795283365111    
  0.3800104156248282    0.38216134195247964    0.38001041498358706    0.37707954540698013    0.3769597749224641    
  0.37998360691968425    0.3823527799384354    0.40703519461329624    0.3800444700821954    0.3536526365363423    
  0.3433840900632015    0.3535585739735891    0.38001040542636594    0.4072411057130846    0.41939513018298036    
  0.4208507023092764    0.41945488350635535    0.40703519461329624    0.427549152974538    0.41940405770119854    
  0.37694526862287925    0.34343293013223913    0.34338407094378437    0.3770795626049563    0.4193951345193666    
  0.427386706330842    0.4051804061196538    0.4052761213839359    0.427549152974538    0.3162001634837756    
  0.4052226801106168    0.4209573147834112    0.37694525847642724    0.3536525843662363    0.37695974263136883    
  0.420850754676293    0.40518041705832986    0.3164644390009233    0.26737787083919384    0.3162001634837756    
  0.15198099377417992    0.2673729789418503    0.40522266903764015    0.41940402969083423    0.380044510750535    
  0.37998362602824975    0.41945483684684787    0.4052761674534511    0.26737786193159874    0.15182520449863668    
  0.15198099377417992    0.09486216179175633    0.15198097886398018    0.31620018200582684    0.42754912960399605    
  0.4070352118113667    0.3823527928601063    0.4070351845628097    0.42754912686054547    0.3162001677304301    
  0.15198095152763372    0.09486216179175633    0.27414593684872085    0.32179384394753396    0.4015569636977161    
  0.39908087714208074    0.34143275233474024    0.31405011355118106    0.34143275840937504    0.3990808590384503    
  0.40155700103601083    0.32179383893947094    0.27414593684872085    0.32179382810164797    0.3216638059344256    
  0.38477772259080817    0.41049757139123183    0.3613858344644626    0.31298256289110526    0.31301154116720686    
  0.3613568260876122    0.4104905359200573    0.3847525114681428    0.32179382810164797    0.40155690608663014    
  0.38477765535542113    0.4016987134006045    0.41046060933746537    0.3679402201416035    0.31184045045839076    
  0.2890102680147006    0.3118395846232493    0.36797150383648536    0.4104905393982534    0.40155690608663014    
  0.3990808587168762    0.410497615666364    0.41046063351753376    0.3990031255704926    0.3613662320211121    
  0.3118771429177523    0.28010556406087334    0.28011296053741574    0.3118396249579651    0.3613568936721963    
  0.3990808587168762    0.34143271901546807    0.36138584329956464    0.3679402562266299    0.3613662075447744    
  0.34151275188326696    0.3129967865265689    0.2889781547777469    0.28010552923907517    0.28901030798773786    
  0.3130115361414535    0.34143271901546807    0.31405012161349005    0.3129825966569667    0.31184046385400316    
  0.3118771080277769    0.3129968331610992    0.31397195980144177    0.31299685509163655    0.3118771387296771    
  0.3118404612735693    0.31298260723137417    0.31405012161349005    0.34143273456586615    0.3130115257939127    
  0.28901030960564467    0.28010550584419225    0.2889781831038827    0.31299682291997627    0.34151273885278904    
  0.3613662422221738    0.3679402582138019    0.3613858910179603    0.34143273456586615    0.3990808714311782    
  0.3613568303387745    0.3118395741877128    0.28011301856218535    0.2801055096260564    0.31187713440250836    
  0.361366238930285    0.3990031140552728    0.41046060401413276    0.4104976043948201    0.3990808714311782    
  0.4015569347632109    0.4104904998010739    0.3679714729948833    0.3118395794951132    0.2890102815650917    
  0.3118404420707334    0.36794028528352984    0.4104606012049452    0.4016987420867375    0.3847777459297738    
  0.4015569347632109    0.3217938542757826    0.38475247383356637    0.4104905215304181    0.3613567969456689    
  0.31301154895357186    0.3129826275119054    0.36138584756521436    0.4104976509990997    0.38477771567187874    
  0.32166375624407434    0.3217938542757826    0.27414593684872085    0.32179384394753396    0.4015569636977161    
  0.39908087714208074    0.34143275233474024    0.31405011355118106    0.34143275840937504    0.3990808590384503    
  0.40155700103601083    0.32179383893947094    0.27414593684872085    0.4968106061091711    0.4874589456351057    
  0.4364173859588924    0.34541668864388936    0.26956250244951097    0.24263134465349284    0.26956251379158064    
  0.34541667966222606    0.4364173890052588    0.48745892110465255    0.4968106061091711    0.48745891969947536    
  0.48743086042932    0.4554474732226378    0.3782364404173512    0.2922065699389828    0.24250748700409938    
  0.24251170624188936    0.29220131326055504    0.37823828167321616    0.45543809788421435    0.48745891969947536    
  0.4364173393819396    0.4554474062331776    0.4364400946915997    0.3782341954069073    0.3009275267713072    
  0.2423685563574047    0.2219364722629574    0.24236915488101324    0.3009302748296846    0.37823829126211483    
  0.4364173393819396    0.3454166881226804    0.3782364741460407    0.378234223786613    0.34540335404199785    
  0.2922044962261588    0.24237188676790924    0.2145052258325529    0.21450387557201975    0.24236917874752523    
  0.2922013741901952    0.3454166881226804    0.269562475434984    0.29220658682275014    0.3009275569133704    
  0.2922044807470807    0.26957305795304104    0.24250995914332873    0.221932278684474    0.21450519935644938    
  0.221936502503564    0.24251170399158062    0.269562475434984    0.24263132954527858    0.24250749371287633    
  0.24236856927769065    0.24237184378941953    0.24250998982990682    0.24261994337125645    0.2425100059461243    
  0.24237185225220356    0.24236855310100583    0.24250748639283284    0.24263132954527858    0.2695624813952237    
  0.24251169949152163    0.22193650392497946    0.21450519111621658    0.22193227381967937    0.2425099808045061    
  0.2695730575795197    0.2922044917243217    0.3009275682188085    0.29220661589163144    0.2695624813952237    
  0.34541667329108755    0.2922013262254317    0.2423691585509894    0.2145039100277956    0.2145051838196611    
  0.24237184826085312    0.29220450442650564    0.3454033580469238    0.3782342136983731    0.3782364798649712    
  0.34541667329108755    0.43641738514730044    0.37823824109895016    0.300930221131004    0.24236915840080456    
  0.22193647246956416    0.24236853273073228    0.300927558171115    0.37823419258254914    0.4364401171184337    
  0.45544749265649015    0.43641738514730044    0.4874589405127281    0.45543800693966346    0.37823826362623536    
  0.29220130200413585    0.24251173523723382    0.24250750361084114    0.29220656352571106    0.37823651689516846    
  0.45544749857431877    0.4874307625100626    0.4874589405127281    0.4968106061091711    0.4874589456351057    
  0.4364173859588924    0.34541668864388936    0.26956250244951097    0.24263134465349284    0.26956251379158064    
  0.34541667966222606    0.4364173890052588    0.48745892110465255    0.4968106061091711    0.5698130690141955    
  0.5235619671463503    0.4122067482588869    0.2956300061582021    0.21906881387485    0.19394995796549425    
  0.2190688195352976    0.29563001430414493    0.41220674598247253    0.5235619487760711    0.5698130690141955    
  0.5235619976499851    0.523561436736143    0.4450615950743347    0.3332639030368216    0.24131972327575277    
  0.19447394933029677    0.19446941260898704    0.2413248982457487    0.33326457049064384    0.4450575614915471    
  0.5235619976499851    0.4122067324745015    0.4450615830803122    0.41220631730172536    0.3332621914386075    
  0.25026803257580654    0.19495613199284087    0.17657122194540584    0.19495701922018707    0.25026090933079514    
  0.3332645930180741    0.4122067324745015    0.2956300078899846    0.33326392967152835    0.33326220630219144    
  0.2956330608704099    0.24132017261980043    0.19495609193850277    0.17002133042220477    0.17002272277026828    
  0.19495704306871992    0.24132494153213982    0.2956300078899846    0.21906879953498914    0.2413197704798323    
  0.25026808835062364    0.2413201866956282    0.21907103079990925    0.19447112589665522    0.17657315432072077    
  0.17002130871172927    0.17657124114954123    0.19446942187917554    0.21906879953498914    0.19394993283406892    
  0.1944739573504279    0.19495616738260865    0.1949560651922367    0.1944711588262128    0.1939494137508386    
  0.19447116157876906    0.19495606240498808    0.19495616417149947    0.19447395414507776    0.19394993283406892    
  0.2190687881659604    0.19446943433899017    0.17657125389137543    0.17002131027282688    0.1765731614229625    
  0.19447114807315877    0.21907100700823218    0.2413201838347343    0.25026805574394245    0.2413197844086308    
  0.2190687881659604    0.2956299914750237    0.24132491330807676    0.19495700902646512    0.17002274661227287    
  0.17002130982953714    0.19495607756046293    0.24132016047424465    0.29563304990392064    0.33326217625263244    
  0.33326390669670547    0.2956299914750237    0.41220672829248406    0.3332645557087501    0.25026089837396454    
  0.19495700859059859    0.17657123929189533    0.19495615295991403    0.25026806408440916    0.3332621880681457    
  0.4122063385838868    0.44506164511284835    0.41220672829248406    0.5235620194177247    0.44505759280175533    
  0.3332645316574637    0.24132490518258623    0.19446945151720574    0.19447397398003657    0.2413197439746529    
  0.33326393437531776    0.4450616137324692    0.5235613777579071    0.5235620194177247    0.5698130690141955    
  0.5235619671463503    0.4122067482588869    0.2956300061582021    0.21906881387485    0.19394995796549425    
  0.2190688195352976    0.29563001430414493    0.41220674598247253    0.5235619487760711    0.5698130690141955    
  0.5673761801344526    0.5142426995405427    0.39394450170509865    0.27621020123972967    0.20159426894451743    
  0.1773935900349845    0.20159427036747596    0.27621021886808894    0.3939445247918959    0.5142427042379203    
  0.5673761801344526    0.5142426742201187    0.5142331158770973    0.42850748649908665    0.31367266828673496    
  0.22336901498042766    0.17816230673240255    0.1781599416953732    0.22337025411950975    0.3136801393963342    
  0.4284965866917086    0.5142426742201187    0.3939445106651138    0.42850745077179025    0.3939425407154004    
  0.3136803674488006    0.23225283047272868    0.17891314271296807    0.16124363131797298    0.1789144038856046    
  0.23224555088702162    0.31368014199392064    0.3939445106651138    0.2762102176551965    0.31367263071887314    
  0.313680356214424    0.2762065776230082    0.2233661890439915    0.1789150540569238    0.15495377018055922    
  0.15495882147741158    0.17891441651193177    0.22337026863307277    0.2762102176551965    0.20159424171180582    
  0.22336904365831647    0.2322528636721096    0.22336620656474576    0.20160333608274236    0.1781560200912771    
  0.16124991218565893    0.15495374341248477    0.1612436304025821    0.17815995602871526    0.20159424171180582    
  0.17739357948755924    0.17816230755944681    0.1789131605376766    0.17891503254916163    0.17815602836671898    
  0.17739588437397716    0.17815604015677025    0.17891506369367158    0.1789131518436584    0.17816231936453655    
  0.17739357948755924    0.20159423054434492    0.1781599717787848    0.16124362718803656    0.1549537259334653    
  0.161249911793861    0.17815602239499495    0.2016033351355929    0.2233661766149191    0.23225289833501134    
  0.22336908366119385    0.20159423054434492    0.2762102338882016    0.22337024047291193    0.1789144039416588    
  0.1549588315846808    0.15495371750494652    0.1789150662658019    0.22336619885791034    0.27620654791379756    
  0.31368038765490175    0.31367266631687224    0.2762102338882016    0.3939444594998369    0.31368012315672095    
  0.23224553946264237    0.17891437793556655    0.16124361356645736    0.17891314917338044    0.23225289602773774    
  0.31368034572797404    0.393942592225802    0.4285075442170618    0.3939444594998369    0.5142427626500604    
  0.4284965991815421    0.3136801028565206    0.22337023591357072    0.1781599966038815    0.1781623129564698    
  0.22336901131784964    0.31367269221095617    0.42850754919360096    0.5142331359105526    0.5142427626500604    
  0.5673761801344526    0.5142426995405427    0.39394450170509865    0.27621020123972967    0.20159426894451743    
  0.1773935900349845    0.20159427036747596    0.27621021886808894    0.3939445247918959    0.5142427042379203    
  0.5673761801344526    0.5698130530032197    0.5235619875264614    0.41220677320169186    0.29563000589668487    
  0.2190688219791178    0.193949958487476    0.2190687977157927    0.2956300262293968    0.4122067642589391    
  0.5235619196707838    0.5698130530032197    0.5235619818995857    0.5235614027156401    0.44506158171062055    
  0.3332639075307477    0.24131975044102183    0.19447396648829376    0.19446940953985462    0.2413248895176345    
  0.33326459554169235    0.4450575614257155    0.5235619818995857    0.4122067349794974    0.44506155953097337    
  0.4122063092875788    0.3332621837022769    0.2502680303037692    0.19495613290275146    0.1765712141819742    
  0.19495702857224376    0.2502609078846657    0.33326458597220227    0.4122067349794974    0.2956300116616204    
  0.3332639485474662    0.333262189981055    0.29563306962988906    0.24132018601548313    0.1949560831884574    
  0.17002133255439772    0.17002273115490077    0.19495701504080537    0.2413249314759098    0.2956300116616204    
  0.21906878716489703    0.24131975597618127    0.2502680760089487    0.24132017293560779    0.21907104147508583    
  0.19447112716700934    0.17657314819548273    0.17002131297565634    0.1765712407500846    0.19446941454622133    
  0.21906878716489703    0.1939499407372019    0.19447395142653326    0.19495616050818107    0.19495605704383082    
  0.1944711634092103    0.19394942517572883    0.19447116483751273    0.19495606648634656    0.19495616991371348    
  0.1944739450067058    0.1939499407372019    0.21906881046718657    0.19446941357420705    0.17657124972856458    
  0.17002130380103492    0.17657316253092487    0.19447116255504657    0.21907101024417655    0.24132016573314635    
  0.25026805816843023    0.24131976663101204    0.21906881046718657    0.29563001945113426    0.24132491485822463    
  0.19495700351299147    0.17002275381249016    0.1700212899895001    0.1949560875062143    0.2413201587333493    
  0.29563305819715097    0.3332621654386605    0.333263909540667    0.29563001945113426    0.41220673574338046    
  0.33326455429167756    0.25026088792873746    0.1949569950304089    0.17657121877608684    0.19495614247995874    
  0.2502680797376901    0.3332621720085116    0.412206361374041    0.4450616271024308    0.41220673574338046    
  0.5235620190313297    0.44505756116084866    0.3332645448763583    0.24132489430777088    0.19446943152169166    
  0.19447396111559634    0.24131972947583877    0.3332639606176949    0.4450616189324123    0.5235613774999169    
  0.5235620190313297    0.5698130530032197    0.5235619875264614    0.41220677320169186    0.29563000589668487    
  0.2190688219791178    0.193949958487476    0.2190687977157927    0.2956300262293968    0.4122067642589391    
  0.5235619196707838    0.5698130530032197    0.49681059776616265    0.4874589018789522    0.4364173835709226    
  0.34541669284914633    0.26956250858164876    0.24263133132089287    0.2695624976975207    0.3454166918742285    
  0.43641745409026866    0.48745889166596396    0.49681059776616265    0.4874588716974382    0.4874308328253435    
  0.4554474591612031    0.37823644094603714    0.29220655941702056    0.2425074707096419    0.24251171194736504    
  0.29220132051950826    0.3782383012110385    0.4554380844269125    0.4874588716974382    0.43641733833096163    
  0.4554473956321961    0.4364400694302842    0.37823420663565105    0.30092752948868057    0.2423685398323776    
  0.22193646591535993    0.2423691588942345    0.3009302704601854    0.3782382904380911    0.43641733833096163    
  0.3454166976745015    0.3782364805284525    0.3782342276664356    0.3454033331128041    0.2922045103673875    
  0.24237187799421803    0.21450524824902367    0.21450386479463399    0.2423691835100103    0.29220137662881224    
  0.3454166976745015    0.2695624736189176    0.29220657424988267    0.3009275639175361    0.2922044903164588    
  0.26957307342217834    0.2425099604775153    0.2219322828564602    0.21450521927968402    0.22193649461958792    
  0.2425117167875583    0.2695624736189176    0.24263134008465134    0.24250750154506143    0.24236855738300314    
  0.24237184991031657    0.2425100018779959    0.24261995887612872    0.2425100290903772    0.24237187266120505    
  0.24236856782184288    0.24250750446500852    0.24263134008465134    0.2695624994341287    0.24251169442299642    
  0.2219365005563396    0.21450519961213693    0.22193229531826175    0.2425100052140181    0.26957307499646915    
  0.29220451839204276    0.30092757123713665    0.2922066165678722    0.2695624994341287    0.34541669799024904    
  0.2922013275484718    0.24236913541720725    0.214503920215941    0.21450520166406023    0.24237187177815187    
  0.29220450871765663    0.3454033382822676    0.3782342167290384    0.37823647983005143    0.34541669799024904    
  0.43641736083658705    0.3782382613307291    0.30093023976184025    0.2423691490807301    0.22193647570316946    
  0.24236854171378705    0.3009275793068896    0.37823420759436616    0.4364401170854008    0.45544751717220305    
  0.43641736083658705    0.4874589265901325    0.4554380366071349    0.3782382698588692    0.29220128328168415    
  0.2425117350014168    0.2425075203121539    0.2922065712329147    0.3782365271530604    0.4554474876263965    
  0.4874307532946706    0.4874589265901325    0.49681059776616265    0.4874589018789522    0.4364173835709226    
  0.34541669284914633    0.26956250858164876    0.24263133132089287    0.2695624976975207    0.3454166918742285    
  0.43641745409026866    0.48745889166596396    0.49681059776616265    0.27414591263334553    0.32179385834409174    
  0.40155693494962486    0.39908085644286573    0.34143276472260536    0.3140501347990104    0.3414327595015932    
  0.3990808572438544    0.4015569823724672    0.32179385681269257    0.27414591263334553    0.32179384074722434    
  0.32166381381553166    0.3847776951444901    0.4104975672116507    0.36138585528749195    0.31298258988022654    
  0.3130115294747465    0.36135682715666567    0.41049052265992036    0.38475253533947434    0.32179384074722434    
  0.40155688901251396    0.38477763730832737    0.40169872108208343    0.4104605954955483    0.3679402210964667    
  0.31184044459702553    0.2890102747745124    0.3118395949191732    0.3679715047892378    0.4104905332674769    
  0.40155688901251396    0.39908086012866345    0.4104975761426101    0.4104606162310707    0.39900312629977414    
  0.361366217326189    0.3118771554608915    0.28010554970772167    0.28011297125233253    0.31183962245420416    
  0.3613568901658373    0.39908086012866345    0.34143272446997774    0.3613858621906655    0.3679402404955894    
  0.36136620319102547    0.34151273724910153    0.3129967834798427    0.28897816906610596    0.2801055156371767    
  0.28901030674122014    0.3130115358735022    0.34143272446997774    0.3140501149842526    0.31298259990697125    
  0.31184046855850295    0.3118771109582995    0.3129968254437273    0.31397195194393657    0.3129968522046279    
  0.3118771089811502    0.3118404638172633    0.3129825831141001    0.3140501149842526    0.3414327447166085    
  0.3130115214284228    0.2890103148537824    0.2801054997629949    0.28897816542862353    0.3129968191488654    
  0.34151272838515073    0.3613662246178086    0.36794025936085756    0.3613858883599117    0.3414327447166085    
  0.39908085307514113    0.3613568410452914    0.3118395879326106    0.28011300860548255    0.2801054926892558    
  0.311877104316554    0.3613662365697941    0.39900315014764964    0.41046060676247015    0.41049760467207086    
  0.39908085307514113    0.4015569456304783    0.41049048602510113    0.3679714591779576    0.31183959906551934    
  0.2890102689039826    0.3118404291111542    0.36794025887911497    0.41046059588586326    0.40169874651753434    
  0.3847777330649683    0.4015569456304783    0.32179385318393244    0.38475244486804466    0.41049049341301685    
  0.3613568118316422    0.3130115644516365    0.3129826068401971    0.36138582352438775    0.4104976462942629    
  0.38477772936468235    0.32166373453530356    0.32179385318393244    0.27414591263334553    0.32179385834409174    
  0.40155693494962486    0.39908085644286573    0.34143276472260536    0.3140501347990104    0.3414327595015932    
  0.3990808572438544    0.4015569823724672    0.32179385681269257    0.27414591263334553    0.09486216423366431    
  0.15198096438470207    0.3162001469966864    0.42754912286303426    0.407035212255039    0.3823527883065091    
  0.4070351940372972    0.4275491265877318    0.3162001580075145    0.15198095908378262    0.09486216423366431    
  0.15198098117138137    0.15182521688243586    0.26737782658416465    0.4052760966815732    0.4194548287673577    
  0.37998360413332366    0.3800444678500044    0.4194040220486473    0.40522269748667794    0.26737297402381593    
  0.15198098117138137    0.31620014288268283    0.26737783195452025    0.31646440218158756    0.4051804279522283    
  0.42085068870993597    0.3769597326922667    0.3536525991797646    0.376945289900146    0.4209573398093026    
  0.40522272597497044    0.31620014288268283    0.42754913377319437    0.40527613270990454    0.40518044022383587    
  0.42738671113293203    0.41939515227879715    0.3770795739532339    0.3433841275456179    0.34343290113679836    
  0.3769453277071801    0.41940409573222415    0.42754913377319437    0.40703517453683735    0.419454867085802    
  0.42085074430593455    0.419395162442657    0.4072411462767419    0.3800103592298356    0.3535585633758579    
  0.3433841094169664    0.3536526084016603    0.3800444828565523    0.40703517453683735    0.38235276916442273    
  0.37998362863057855    0.3769597699584294    0.37707953819264406    0.3800104084504902    0.382161338929851    
  0.3800104250879045    0.3770795360405568    0.37695977609794323    0.37998363146732594    0.38235276916442273    
  0.4070351827533066    0.38004450488334046    0.3536526448294481    0.34338409568641465    0.3535585768251134    
  0.3800103826306087    0.40724109372800865    0.4193951604033803    0.4208507073961337    0.4194548937069908    
  0.4070351827533066    0.42754911334676243    0.4194040586576511    0.3769452656400645    0.3434329297861869    
  0.34338410042565887    0.3770795456134216    0.41939513089787234    0.4273867099762629    0.40518041938394733    
  0.405276104236466    0.42754911334676243    0.316200136412918    0.4052226643607613    0.42095731831941763    
  0.37694525851102884    0.3536526221801952    0.3769597605593428    0.42085072683682145    0.4051804365357912    
  0.31646443158006127    0.2673778715104841    0.316200136412918    0.1519809971080921    0.2673729876135105    
  0.40522264220466625    0.4194040257555631    0.3800445281994259    0.3799836353394706    0.41945483806589046    
  0.405276144736703    0.26737787565207216    0.15182519800219718    0.1519809971080921    0.09486216423366431    
  0.15198096438470207    0.3162001469966864    0.42754912286303426    0.407035212255039    0.3823527883065091    
  0.4070351940372972    0.4275491265877318    0.3162001580075145    0.15198095908378262    0.09486216423366431    
  0.049751641065666305    0.09800259352115633    0.27345626980961396    0.43277053451364267    0.4338253318246453    
  0.41150783963693355    0.4338253179099276    0.43277053418948375    0.2734562881957427    0.09800259836625715    
  0.049751641065666305    0.09800259640675767    0.09788101908622031    0.21607304157633395    0.3937780169543033    
  0.441211214782736    0.408361761469093    0.4084325588413836    0.4411607882153683    0.3936882472035687    
  0.2160944440002042    0.09800259640675767    0.2734562759423605    0.2160730243204232    0.27373342788860333    
  0.39365776078295245    0.439332908247455    0.4040714966303762    0.381429898242661    0.40404434285759927    
  0.43948660916339194    0.39368827058638317    0.2734562759423605    0.43277056047627965    0.393777982481889    
  0.39365772412157884    0.43259198671299975    0.4411309198087873    0.40423278535014495    0.37068350632054187    
  0.3707564245501103    0.40404437148431105    0.44116082500375675    0.43277056047627965    0.43382529663632396    
  0.4412112647270369    0.4393329133005809    0.44113092630970246    0.43407566196690756    0.4083992139994903    
  0.3812974470508594    0.3706834788277815    0.3814298846010151    0.4084325764051767    0.43382529663632396    
  0.4115078392378056    0.4083617779341295    0.4040715129231615    0.4042327621289508    0.408399223473316    
  0.4112644510699091    0.4083992568769925    0.40423281857544313    0.40407151441973677    0.40836177332055695    
  0.4115078392378056    0.43382529812195847    0.4084326062967756    0.3814298901257271    0.37068344363477695    
  0.3812974628881336    0.40839921244423083    0.4340756541693881    0.44113090433149243    0.43933296705889796    
  0.4412113203614176    0.43382529812195847    0.4327705981198795    0.4411607792172204    0.4040443390076012    
  0.3707564299249003    0.3706834411705904    0.40423278174690025    0.44113092874979404    0.43259196334606104    
  0.393657765404731    0.39377802268223694    0.4327705981198795    0.2734562445196354    0.39368823589424856    
  0.43948660855635907    0.40404428764237826    0.38142985163162435    0.4040714995276552    0.43933296387400217    
  0.39365772638178476    0.27373346604252163    0.21607307479296314    0.2734562445196354    0.09800262789765365    
  0.2160944576245544    0.39368820552994477    0.441160761523459    0.4084326464956785    0.4083617721857438    
  0.4412112029113209    0.39377804444245085    0.21607307484842453    0.09788102861881741    0.09800262789765365    
  0.049751641065666305    0.09800259352115633    0.27345626980961396    0.43277053451364267    0.4338253318246453    
  0.41150783963693355    0.4338253179099276    0.43277053418948375    0.2734562881957427    0.09800259836625715    
  0.049751641065666305    
  END_DATAGRID_3D    
  END_BLOCK_DATAGRID_3D    