#     DFTpy    
  CRYSTAL 
    
  PRIMVEC    
  1.0482171259644668    -1.8155653195342822    0.0    
  1.0482171259644668    1.8155653195342822    0.0    
  0.0    0.0    1.9730835119999997    
  PRIMCOORD    
  1    1    
  Si    0.0    0.0    0.0    
  BEGIN_BLOCK_DATAGRID_3D    
  3d_datagrid_density    
  BEGIN_DATAGRID_3D#0    
  9    9    9    
  0.0    0.0    0.0    
  1.0482171259644668    -1.8155653195342822    0.0    
  1.0482171259644668    1.8155653195342822    0.0    
  0.0    0.0    1.9730835119999997    
  0.05363809115163884    0.12047611748547793    0.38558557703489227    0.6570272662254623    0.7197136064504875    
  0.6570272509939594    0.38558558187987796    0.12047612947549366    0.05363809115163884    0.12047615182916133    
  0.1200902988137961    0.2966605937990714    0.5828835577266731    0.7075461960643294    0.7073036869169925    
  0.5826869010519566    0.29663140659464    0.12047615182916133    0.3855855536861812    0.2966604931337401    
  0.38646154973464336    0.5825323772300506    0.6948557910807789    0.7077863358827067    0.6953203371236615    
  0.5826868921226227    0.3855855536861812    0.6570273335303516    0.5828836230372205    0.5825323602479867    
  0.6564034998625828    0.7072998212789643    0.7084234546285703    0.707786358822114    0.7073036165807445    
  0.6570273335303516    0.7197136994557078    0.7075460121819691    0.6948557329356296    0.7072997403221121    
  0.7205100877820084    0.7072996523943246    0.6948557443030554    0.7075460000115794    0.7197136994557078    
  0.6570272791737952    0.7073036708750496    0.7077864368818357    0.7084234649163506    0.7072998089928945    
  0.6564035071450445    0.5825324611853376    0.5828835374946753    0.6570272791737952    0.38558558163151047    
  0.5826867569912076    0.6953202788569365    0.7077863892832842    0.6948558012818052    0.5825323306529703    
  0.3864615938398447    0.29666053661618064    0.38558558163151047    0.12047614476753592    0.29663151132273824    
  0.5826868270601367    0.7073037250968977    0.7075461672020338    0.5828834870977748    0.29666060337137523    
  0.120090256161716    0.12047614476753592    0.05363809115163884    0.12047611748547793    0.38558557703489227    
  0.6570272662254623    0.7197136064504875    0.6570272509939594    0.38558558187987796    0.12047612947549366    
  0.05363809115163884    0.11501989357140316    0.19648076153876382    0.4412458441075532    0.6337164182012065    
  0.6664217174549953    0.6337164245892469    0.4412458463020423    0.19648077442663514    0.11501989357140316    
  0.19648080821497355    0.19604657225152922    0.36720047690069413    0.5863023912962082    0.6582433852385778    
  0.6580560661176806    0.5861954683178047    0.36713282722046353    0.19648080821497355    0.4412459017173096    
  0.3672003914082131    0.4419912389918135    0.5860550219765794    0.6496018171628283    0.6490592706867055    
  0.6498960839358114    0.5861953572617569    0.4412459017173096    0.6337164515675743    0.5863024908755005    
  0.5860550773630712    0.6332179340178827    0.6580737128722317    0.6494623831689474    0.6490593658383337    
  0.6580561094131824    0.6337164515675743    0.6664217636837666    0.6582432515474929    0.6496018028382818    
  0.6580736115890496    0.6670185781840933    0.6580735979564301    0.6496018585181427    0.6582432092487982    
  0.6664217636837666    0.6337164340339211    0.6580561283430794    0.6490593428786634    0.6494625113038157    
  0.6580737233639703    0.6332178650644774    0.58605514979422    0.5863022914800535    0.6337164340339211    
  0.44124587988657143    0.5861954040794346    0.649896026450695    0.6490592830744482    0.6496017941285799    
  0.5860550073835138    0.4419912075970828    0.3672004843325918    0.44124587988657143    0.1964808041915762    
  0.36713286825750957    0.586195428893685    0.6580561496256254    0.658243287861581    0.5863022711649094    
  0.3672004290857966    0.19604656766975231    0.1964808041915762    0.11501989357140316    0.19648076153876382    
  0.4412458441075532    0.6337164182012065    0.6664217174549953    0.6337164245892469    0.4412458463020423    
  0.19648077442663514    0.11501989357140316    0.3814520667580619    0.44472971696221475    0.5510165809072168    
  0.5689751419111116    0.5502271751031164    0.5689751080364297    0.5510166121166679    0.4447296606131127    
  0.3814520667580619    0.44472974044579394    0.44446918471604935    0.5279200983721772    0.5711990054420059    
  0.5469008881838672    0.5468474553396903    0.5711747564460146    0.5278716451329825    0.44472974044579394    
  0.5510165640939769    0.5279200330736131    0.5513218468506259    0.5711231731981814    0.5433929100612812    
  0.5203904075159371    0.543460834403764    0.5711747370983092    0.5510165640939769    0.5689752436055457    
  0.5711990198805595    0.5711232273705951    0.5688011223445506    0.5468546976242749    0.5204884427963251    
  0.5203904327221688    0.5468474307176295    0.5689752436055457    0.5502271784901337    0.5469007338041558    
  0.543392874353679    0.5468546769646601    0.5504189493731024    0.5468546475995184    0.5433928902411881    
  0.5469007972347251    0.5502271784901337    0.5689752575363439    0.5468474933818787    0.5203904816299976    
  0.5204884620111436    0.5468547345559064    0.5688011067781091    0.571123309471185    0.5711989638473783    
  0.5689752575363439    0.5510166078194523    0.5711747085422513    0.5434607327944649    0.5203904531877922    
  0.543392892925238    0.5711231971950279    0.5513218331667112    0.5279200206621016    0.5510166078194523    
  0.44472972560951607    0.5278717930342351    0.5711747733552751    0.546847463906175    0.546900854604521    
  0.5711989602143314    0.5279200905334926    0.44446910732820677    0.44472972560951607    0.3814520667580619    
  0.44472971696221475    0.5510165809072168    0.5689751419111116    0.5502271751031164    0.5689751080364297    
  0.5510166121166679    0.4447296606131127    0.3814520667580619    0.7293034632152615    0.6982062211830126    
  0.6043638340556685    0.49539836274449406    0.4490417405315859    0.4953983738178562    0.6043638381995435    
  0.6982062158541922    0.7293034632152615    0.698206269196049    0.698174148633765    0.6336498892708687    
  0.5266308039953955    0.44737106811378213    0.44737051009580536    0.52663105059546    0.6336372349648012    
  0.698206269196049    0.6043638220738948    0.6336497707751884    0.6043961758810624    0.5266336113540558    
  0.4456649841918052    0.41284667865239005    0.44566107763978435    0.5266310396454363    0.6043638220738948    
  0.49539842830953157    0.5266309398895208    0.5266336543547744    0.4953788179884693    0.44736610377772323    
  0.41285074995477883    0.41284669966236576    0.44737053076031347    0.49539842830953157    0.4490417407457536    
  0.4473709862658858    0.4456649868615799    0.4473659786076342    0.44906878019293067    0.4473659538310333    
  0.44566505184090316    0.44737100041693867    0.4490417407457536    0.4953984011763874    0.44737062312414194    
  0.4128467030158047    0.41285085761163204    0.447366111193426    0.49537877059886787    0.5266336568066016    
  0.526630728485811    0.4953984011763874    0.6043638179549279    0.5266310031897037    0.44566101957189314    
  0.4128466541187154    0.44566495413667434    0.5266336651602223    0.6043961631836553    0.6336498966620416    
  0.6043638179549279    0.6982063205790275    0.6336372569980987    0.5266310672780709    0.4473706112154977    
  0.44737105260667354    0.5266307103154182    0.6336499109289276    0.6981740608822707    0.6982063205790275    
  0.7293034632152615    0.6982062211830126    0.6043638340556685    0.49539836274449406    0.4490417405315859    
  0.4953983738178562    0.6043638381995435    0.6982062158541922    0.7293034632152615    0.8517171781356144    
  0.775068832115034    0.606950998511437    0.46331131690426136    0.4109772749571615    0.4633113100779794    
  0.6069509928711274    0.7750688536022932    0.8517171781356144    0.7750689435690741    0.7750749058906585    
  0.6531030019521038    0.5012757796223309    0.40972017891569623    0.40972642726874303    0.5012861719661584    
  0.6530856788886998    0.7750689435690741    0.6069509658795951    0.6531028606475312    0.6069369398058915    
  0.5012928709128931    0.4084556145982093    0.3746084518338471    0.40843717419291187    0.5012861464708513    
  0.6069509658795951    0.46331136390601424    0.5012758184973471    0.5012928506754436    0.4633126888894893    
  0.4097208631131497    0.3745968809332554    0.3746084836884054    0.40972637439376286    0.46331136390601424    
  0.4109773404677056    0.40972003751760155    0.4084555670431803    0.409720804525624    0.41098484595511775    
  0.40972074466230346    0.4084555866140588    0.40972004096798514    0.4109773404677056    0.46331133861633866    
  0.40972644716062023    0.37460852353480534    0.37459691687137325    0.409720865655409    0.46331268879440485    
  0.5012929795382663    0.5012757630000523    0.46331133861633866    0.6069510015482579    0.5012860639038066    
  0.40843711368842783    0.3746085036596786    0.4084556156126244    0.5012928373567098    0.6069369866476851    
  0.6531029120306834    0.6069510015482579    0.7750689540786705    0.6530858625752535    0.5012861367378152    
  0.4097264721085594    0.4097201684825578    0.5012757153235315    0.6531030504365664    0.7750748199996177    
  0.7750689540786705    0.8517171781356144    0.775068832115034    0.606950998511437    0.46331131690426136    
  0.4109772749571615    0.4633113100779794    0.6069509928711274    0.7750688536022932    0.8517171781356144    
  0.7293034400225321    0.69820621332009    0.6043637778133643    0.495398378607653    0.4490417421376083    
  0.4953983768751107    0.6043638327489903    0.6982062218331201    0.7293034400225321    0.6982063192167881    
  0.6981741634941782    0.6336498604891172    0.5266308252317004    0.447371087422771    0.44737052387693227    
  0.5266310939683077    0.6336372280417872    0.6982063192167881    0.604363834289333    0.6336497973188066    
  0.6043961663107558    0.5266336333492331    0.4456649909740507    0.41284665954883626    0.44566106320449855    
  0.5266309743301079    0.604363834289333    0.49539839572572986    0.5266309238601298    0.5266336448263652    
  0.4953788591757259    0.44736607045983384    0.41285073813373097    0.41284672690490193    0.44737058830407794    
  0.49539839572572986    0.4490417651147789    0.4473709699289863    0.44566498690837814    0.44736600273587585    
  0.4490687911600065    0.44736599873642885    0.44566503554333986    0.4473709517455192    0.4490417651147789    
  0.4953983899914366    0.44737061093132185    0.41284672450680715    0.41285084569214264    0.44736609051999976    
  0.49537878407089686    0.5266337361602896    0.5266307300213944    0.4953983899914366    0.6043638767989441    
  0.5266310141829504    0.4456610043568047    0.4128466638116867    0.44566500122440555    0.5266336049450154    
  0.6043961821080869    0.6336498874801625    0.6043638767989441    0.69820633246962    0.6336372815526458    
  0.5266310693675403    0.44737060586097177    0.4473710193563495    0.5266306907300787    0.6336498464868384    
  0.6981741090898143    0.69820633246962    0.7293034400225321    0.69820621332009    0.6043637778133643    
  0.495398378607653    0.4490417421376083    0.4953983768751107    0.6043638327489903    0.6982062218331201    
  0.7293034400225321    0.38145207529138303    0.4447297226583544    0.5510165578073657    0.5689751458418779    
  0.5502271799449117    0.5689751021414421    0.5510166578521386    0.4447296457745351    0.38145207529138303    
  0.4447297468707035    0.4444691803737761    0.527920074020021    0.5711990204420256    0.5469008741487549    
  0.5468474435576437    0.57117476811627    0.5278716431253808    0.4447297468707035    0.5510165374829427    
  0.5279199981287656    0.5513218394867991    0.5711231878906365    0.5433929009045242    0.5203904057429299    
  0.5434608446263965    0.5711747165282851    0.5510165374829427    0.5689752444914813    0.5711990020558861    
  0.5711232110352569    0.5688011260499665    0.5468547021529843    0.5204884364546071    0.5203904584708477    
  0.5468474604513696    0.5689752444914813    0.5502271745049289    0.5469007334881631    0.5433928746824205    
  0.5468546648576018    0.5504189474783374    0.5468546564917958    0.5433928876683246    0.5469007788679856    
  0.5502271745049289    0.5689752406759123    0.5468474838668387    0.5203904688411172    0.5204884647565946    
  0.5468547436141998    0.5688011004142766    0.5711233162198274    0.5711989599388058    0.5689752406759123    
  0.5510166339108961    0.5711747137008983    0.5434607453517812    0.5203904471698191    0.5433928815303479    
  0.5711231905983403    0.5513218471926508    0.5279200052170335    0.5510166339108961    0.444729719678205    
  0.5278717965082583    0.5711747505003343    0.546847455672703    0.5469008765831693    0.5711989722053687    
  0.5279200773166169    0.44446909111147087    0.444729719678205    0.38145207529138303    0.4447297226583544    
  0.5510165578073657    0.5689751458418779    0.5502271799449117    0.5689751021414421    0.5510166578521386    
  0.4447296457745351    0.38145207529138303    0.11501990047717074    0.19648078686849624    0.44124584311052484    
  0.6337164163082109    0.6664217326451297    0.6337164120061888    0.44124591366767696    0.19648076872274314    
  0.11501990047717074    0.196480799946391    0.19604657011923252    0.3672004709491884    0.5863023919585028    
  0.6582433761834378    0.6580560553786661    0.5861954356047882    0.36713281567335526    0.196480799946391    
  0.44124583307695936    0.36720036215117546    0.44199120949399845    0.5860550099384556    0.6496018188959966    
  0.649059334464026    0.649896113224474    0.5861954386062518    0.44124583307695936    0.6337164728122452    
  0.5863024909285087    0.5860550605100397    0.6332179021090982    0.6580737623843644    0.6494623929159301    
  0.6490593439816404    0.6580560531306666    0.6337164728122452    0.6664217461727315    0.6582432554481343    
  0.6496018377551046    0.6580735849185171    0.6670185721337933    0.658073544959511    0.6496018551220961    
  0.6582432722197646    0.6664217461727315    0.6337164697710346    0.6580561352620846    0.649059314620317    
  0.6494625006521646    0.6580737432705931    0.6332178298209914    0.586055071059872    0.5863022938482693    
  0.6337164697710346    0.4412458771944544    0.5861954109152377    0.6498960346070772    0.6490592556945116    
  0.6496017808656782    0.5860550692661297    0.44199122675719427    0.36720048871399796    0.4412458771944544    
  0.19648080533435128    0.36713282942469705    0.5861954069304448    0.6580561622903782    0.6582433589763947    
  0.5863022529722718    0.36720049210755273    0.19604654338603641    0.19648080533435128    0.11501990047717074    
  0.19648078686849624    0.44124584311052484    0.6337164163082109    0.6664217326451297    0.6337164120061888    
  0.44124591366767696    0.19648076872274314    0.11501990047717074    0.05363809115163884    0.12047611748547793    
  0.38558557703489227    0.6570272662254623    0.7197136064504875    0.6570272509939594    0.38558558187987796    
  0.12047612947549366    0.05363809115163884    0.12047615182916133    0.1200902988137961    0.2966605937990714    
  0.5828835577266731    0.7075461960643294    0.7073036869169925    0.5826869010519566    0.29663140659464    
  0.12047615182916133    0.3855855536861812    0.2966604931337401    0.38646154973464336    0.5825323772300506    
  0.6948557910807789    0.7077863358827067    0.6953203371236615    0.5826868921226227    0.3855855536861812    
  0.6570273335303516    0.5828836230372205    0.5825323602479867    0.6564034998625828    0.7072998212789643    
  0.7084234546285703    0.707786358822114    0.7073036165807445    0.6570273335303516    0.7197136994557078    
  0.7075460121819691    0.6948557329356296    0.7072997403221121    0.7205100877820084    0.7072996523943246    
  0.6948557443030554    0.7075460000115794    0.7197136994557078    0.6570272791737952    0.7073036708750496    
  0.7077864368818357    0.7084234649163506    0.7072998089928945    0.6564035071450445    0.5825324611853376    
  0.5828835374946753    0.6570272791737952    0.38558558163151047    0.5826867569912076    0.6953202788569365    
  0.7077863892832842    0.6948558012818052    0.5825323306529703    0.3864615938398447    0.29666053661618064    
  0.38558558163151047    0.12047614476753592    0.29663151132273824    0.5826868270601367    0.7073037250968977    
  0.7075461672020338    0.5828834870977748    0.29666060337137523    0.120090256161716    0.12047614476753592    
  0.05363809115163884    0.12047611748547793    0.38558557703489227    0.6570272662254623    0.7197136064504875    
  0.6570272509939594    0.38558558187987796    0.12047612947549366    0.05363809115163884    
  END_DATAGRID_3D    
  END_BLOCK_DATAGRID_3D    