#     DFTpy    
  CRYSTAL 
    
  PRIMVEC    
  2.4719999999999995    0.0    0.0    
  0.0    2.4719999999999995    0.0    
  0.0    0.0    2.4719999999999995    
  PRIMCOORD    
  2    1    
  Si    0.0    0.0    0.0    
  Si    1.2359999999999998    1.2359999999999998    1.2359999999999998    
  BEGIN_BLOCK_DATAGRID_3D    
  3d_datagrid_density    
  BEGIN_DATAGRID_3D#0    
  11    11    11    
  0.0    0.0    0.0    
  2.4719999999999995    0.0    0.0    
  0.0    2.4719999999999995    0.0    
  0.0    0.0    2.4719999999999995    
  0.05831536415560829    0.11729725794892723    0.3360751897656814    0.532328160575778    0.5248634514898841    
  0.4902290242458218    0.5248635132863105    0.5323281118258782    0.3360752012371918    0.11729727564402581    
  0.05831536415560829    0.11729726864561034    0.19094507519344484    0.40756650931332583    0.5574055479992551    
  0.5308192549058242    0.49589581633461305    0.5308193158984177    0.5574054799833557    0.4075665180521122    
  0.19094507696237784    0.11729726864561034    0.3360752230989787    0.40756646620524195    0.5472315162768524    
  0.5883903099953761    0.536213685687492    0.504904257955422    0.5362136832007253    0.588390342981436    
  0.5472314416846885    0.40756655392987307    0.3360752230989787    0.5323281729160145    0.5574054245929679    
  0.5883903957700686    0.5695580756714024    0.5254026820858945    0.5049031617823171    0.5254026448440154    
  0.5695581610933145    0.5883903822123292    0.5574055108927121    0.5323281729160145    0.5248634536912982    
  0.5308192672076641    0.5362137025958779    0.5254026485010105    0.5055745039286548    0.4958969272563804    
  0.5055745731014157    0.5254025742382441    0.5362137032484176    0.5308192883695577    0.5248634536912982    
  0.4902290494685591    0.4958958217425118    0.504904335310878    0.5049032037112441    0.4958969561435433    
  0.49022787001324575    0.495897025514846    0.5049031860793287    0.5049043036138968    0.495895846954435    
  0.4902290494685591    0.524863430819318    0.5308192080913561    0.5362136586498057    0.5254026904462019    
  0.5055745397698169    0.4958969501992678    0.505574556652306    0.5254026124353715    0.5362137004773915    
  0.5308192777635391    0.524863430819318    0.5323281705272425    0.5574054141357909    0.588390429110039    
  0.5695580827645468    0.5254026712906438    0.5049031828083996    0.5254026716687558    0.5695580531960027    
  0.5883903201254862    0.5574054982836655    0.5323281705272425    0.3360752058567713    0.4075665287859822    
  0.5472314442062914    0.5883903037909729    0.5362137450344442    0.5049043267615211    0.5362137004541425    
  0.5883903966010425    0.5472314994503557    0.4075665258596011    0.3360752058567713    0.11729728652655214    
  0.19094507141372863    0.40756652800942267    0.557405493432733    0.5308192305875843    0.49589581581836956    
  0.5308192943064854    0.5574053904849835    0.4075664791547144    0.1909450908418786    0.11729728652655214    
  0.05831536415560829    0.11729725794892723    0.3360751897656814    0.532328160575778    0.5248634514898841    
  0.4902290242458218    0.5248635132863105    0.5323281118258782    0.3360752012371918    0.11729727564402581    
  0.05831536415560829    0.11729726766656402    0.19094505276419546    0.40756652319469966    0.5574054769219524    
  0.5308192653278413    0.4958958506718666    0.530819272561953    0.5574054040988929    0.4075664925760573    
  0.19094509042356542    0.11729726766656402    0.19094509434872664    0.2711485651095951    0.4706598076598419    
  0.5791705924125705    0.5399499978881123    0.5055757048794745    0.5399500227883341    0.5791705681214604    
  0.4706598151740554    0.27114857091017336    0.19094509434872664    0.40756653153199063    0.4706597993409258    
  0.5846590184693299    0.6077292769738459    0.5549530349590912    0.5254014273301487    0.5549529858520844    
  0.6077292869410094    0.5846589658350672    0.4706598286501766    0.40756653153199063    0.557405440474275    
  0.5791705493657268    0.607729293488585    0.5937568779892458    0.5549518821724502    0.5362148337320101    
  0.5549518693985976    0.5937569696219663    0.6077293572380194    0.5791705804508462    0.557405440474275    
  0.5308192160342476    0.5399499992260716    0.5549530218993141    0.5549518677077347    0.5399511454245838    
  0.5308180735233223    0.5399511733072977    0.55495180034109    0.5549529558774051    0.5399499934694696    
  0.5308192160342476    0.4958959078061824    0.5055756337632975    0.5254014555248154    0.536214922199466    
  0.5308180879629613    0.5248646349810667    0.53081817035264    0.5362148721312243    0.5254015437278323    
  0.5055756311695446    0.4958959078061824    0.5308192577840636    0.5399499697479572    0.5549530813685739    
  0.5549518597777752    0.539951138435806    0.530818100469198    0.5399511361022824    0.5549518219000139    
  0.5549530241704692    0.5399499875770865    0.5308192577840636    0.5574054527107078    0.5791705420620656    
  0.6077293630519894    0.5937568969856961    0.5549518399159633    0.5362147888182014    0.5549518900161349    
  0.5937569546365191    0.6077292947046289    0.5791706163389043    0.5574054527107078    0.4075665175913119    
  0.47065976488474637    0.58465897995876    0.6077292471760254    0.5549530679236856    0.5254014844743844    
  0.5549530133121373    0.6077293122984633    0.5846589687662396    0.4706598162397226    0.4075665175913119    
  0.19094509133781237    0.2711485800896314    0.4706598090512326    0.5791706236945872    0.539949926232909    
  0.5055755942000502    0.5399500274588662    0.579170534883659    0.47065977354051486    0.271148587140521    
  0.19094509133781237    0.11729726766656402    0.19094505276419546    0.40756652319469966    0.5574054769219524    
  0.5308192653278413    0.4958958506718666    0.530819272561953    0.5574054040988929    0.4075664925760573    
  0.19094509042356542    0.11729726766656402    0.336075249579752    0.40756651318082815    0.547231435288364    
  0.5883903700966191    0.536213738769364    0.5049042894250876    0.5362137475079561    0.5883903258868082    
  0.5472314178355396    0.40756655036746703    0.336075249579752    0.40756647707994503    0.47065980190247886    
  0.5846589888380315    0.6077293209432321    0.5549529888622352    0.5254015165938549    0.5549530561133498    
  0.6077293165254787    0.5846589251827965    0.47065983251951077    0.40756647707994503    0.5472314580154101    
  0.5846589598917752    0.6434351449340707    0.6406242865136713    0.5937557086821991    0.5695591688312545    
  0.5937557398410134    0.640624288905424    0.6434350796560951    0.5846590112026039    0.5472314580154101    
  0.5883903587015283    0.607729246208496    0.6406243632462381    0.6406230695318686    0.6077305071599921    
  0.5883891374507291    0.6077304983700438    0.6406231654435363    0.6406242700083499    0.6077293088148223    
  0.5883903587015283    0.5362136914127054    0.5549530311212649    0.5937557053261714    0.6077305211550704    
  0.5791693709827823    0.5574065794855819    0.5791694295397629    0.6077304336638144    0.5937556998012895    
  0.554953095733705    0.5362136914127054    0.5049042997548763    0.5254015109022433    0.569559274737049    
  0.588389156339733    0.5574066068060166    0.5323270110463378    0.5574066816485752    0.5883891821273955    
  0.5695592920004703    0.5254015048887869    0.5049042997548763    0.5362136944259165    0.5549530644483442    
  0.593755731967883    0.6077305233077693    0.5791694034950665    0.5574066489596406    0.579169402171815    
  0.6077304602755963    0.5937556989753979    0.5549530211397506    0.5362136944259165    0.5883903423899106    
  0.6077293041085401    0.6406243201293421    0.6406229978763673    0.6077305230907348    0.5883890953208084    
  0.6077305503842297    0.6406231396375618    0.6406242547104037    0.6077293550207609    0.5883903423899106    
  0.547231442031876    0.5846589561073224    0.6434351271760226    0.6406243070325218    0.5937557297922025    
  0.5695592405798054    0.5937557539088405    0.640624300205978    0.6434350442050277    0.5846589748764595    
  0.547231442031876    0.40756645972684136    0.47065980076648917    0.5846589468751598    0.6077293657175966    
  0.5549530173597208    0.5254014432584793    0.5549530786287272    0.6077292757786792    0.5846589326050705    
  0.4706598296263168    0.40756645972684136    0.336075249579752    0.40756651318082815    0.547231435288364    
  0.5883903700966191    0.536213738769364    0.5049042894250876    0.5362137475079561    0.5883903258868082    
  0.5472314178355396    0.40756655036746703    0.336075249579752    0.5323281840662955    0.5574054288984741    
  0.5883903560883578    0.5695581048063992    0.525402665711977    0.5049032042054243    0.525402688360992    
  0.5695580446819952    0.588390303355111    0.5574055264010209    0.5323281840662955    0.5574054113953401    
  0.579170600401656    0.6077292795830626    0.5937569049413236    0.5549518714989038    0.5362148544257492    
  0.554951903795398    0.5937568752350009    0.607729281404721    0.5791705611412854    0.5574054113953401    
  0.5883903141068277    0.6077293488871219    0.64062433884672    0.640623061619126    0.6077305028514844    
  0.588389129331858    0.6077305143569073    0.6406231206162762    0.6406242886932931    0.6077293389565092    
  0.5883903141068277    0.5695580728993405    0.5937568425610478    0.6406231378508266    0.6434362340320294    
  0.5846578001080626    0.5472326002453183    0.5846578013356061    0.6434362986694739    0.6406231265036597    
  0.593756893958069    0.5695580728993405    0.5254026336246097    0.5549518657814331    0.6077305082590961    
  0.584657815590901    0.4706608968440872    0.4075654425694752    0.4706609369299188    0.5846577672717304    
  0.6077304006817514    0.5549519346201128    0.5254026336246097    0.5049032002955003    0.5362148363124917    
  0.5883891755903186    0.5472326223800795    0.40756546553520373    0.3360761780179113    0.40756554739725404    
  0.5472325825528525    0.588389218052954    0.5362148622826042    0.5049032002955003    0.5254026085779644    
  0.5549518467307569    0.6077305308687324    0.5846578183486549    0.47066087740376544    0.40756548624764927    
  0.470660858494174    0.5846577408843805    0.6077304633972639    0.5549518835339039    0.5254026085779644    
  0.5695580758816803    0.5937569290075615    0.6406231214864231    0.6434362335959585    0.5846577937657771    
  0.5472325369102728    0.5846578456678357    0.6434363542760277    0.640623055847551    0.5937569316910883    
  0.5695580758816803    0.5883903603797669    0.6077292815410829    0.6406243138615494    0.6406230671566623    
  0.6077305481413432    0.5883891617583862    0.607730514313692    0.6406231259776689    0.6406242875258596    
  0.6077293484600608    0.5883903603797669    0.5574053930546011    0.5791706286510322    0.6077293091640557    
  0.5937569802678263    0.5549518281583564    0.5362148071789798    0.5549519575997868    0.5937568593106959    
  0.6077293308447376    0.5791706328098405    0.5574053930546011    0.5323281840662955    0.5574054288984741    
  0.5883903560883578    0.5695581048063992    0.525402665711977    0.5049032042054243    0.525402688360992    
  0.5695580446819952    0.588390303355111    0.5574055264010209    0.5323281840662955    0.5248634582056343    
  0.530819199657536    0.5362137365495109    0.5254026534090767    0.5055745274383893    0.49589696470935635    
  0.5055745550814649    0.525402570801578    0.5362137201710345    0.5308192334160654    0.5248634582056343    
  0.5308192273563791    0.5399499915678424    0.554952989187539    0.5549519102553798    0.5399511478631179    
  0.5308181333475709    0.5399511601548623    0.554951827606418    0.5549530038161158    0.5399500208692277    
  0.5308192273563791    0.5362136833918922    0.5549530194246455    0.5937557838092171    0.6077305120790265    
  0.5791694033727076    0.5574065504765334    0.5791694224702932    0.6077304779284246    0.5937557380903931    
  0.5549530037173083    0.5362136833918922    0.5254026587302779    0.5549518381674365    0.60773051964249    
  0.584657745220382    0.47066091621716916    0.4075654587845023    0.4706609014952689    0.5846578576304349    
  0.6077305351607573    0.5549519245028952    0.5254026587302779    0.5055745043107887    0.5399511252315322    
  0.5791694066639433    0.4706608874641201    0.271147671894508    0.1909458429957506    0.2711476973870556    
  0.4706608292190708    0.579169352269706    0.5399510985074495    0.5055745043107887    0.495896992590926    
  0.5308180808811062    0.557406585713828    0.4075655138142832    0.19094585377729775    0.11729661817752081    
  0.1909459066530642    0.40756548312499347    0.5574066281534985    0.5308180962150989    0.495896992590926    
  0.5055745491860115    0.5399511631534912    0.5791693636149031    0.4706609270216848    0.27114769179594117    
  0.19094585459303998    0.2711476807387789    0.4706608696356119    0.5791693969690587    0.5399511505522627    
  0.5055745491860115    0.5254026331330821    0.5549518032550531    0.6077305430987986    0.5846578092597354    
  0.4706608830175942    0.4075654177695584    0.4706609092408917    0.5846578234303085    0.6077305032723627    
  0.5549519233668356    0.5254026331330821    0.5362137154651336    0.5549529678427393    0.5937557126223042    
  0.6077304329110446    0.5791694556093895    0.5574066033099545    0.5791693822091429    0.6077305072705972    
  0.5937556728920775    0.5549530311243689    0.5362137154651336    0.5308192449016186    0.5399500246993287    
  0.5549530321074008    0.5549518537890321    0.5399510977797292    0.530818037534469    0.5399511601789292    
  0.5549518582001656    0.5549529736227153    0.5399500052152415    0.5308192449016186    0.5248634582056343    
  0.530819199657536    0.5362137365495109    0.5254026534090767    0.5055745274383893    0.49589696470935635    
  0.5055745550814649    0.525402570801578    0.5362137201710345    0.5308192334160654    0.5248634582056343    
  0.4902290237135486    0.4958958297797397    0.5049042865608779    0.5049032066092866    0.49589693999093004    
  0.4902278962044076    0.4958970006514141    0.5049031900104409    0.504904299139817    0.49589586190268115    
  0.4902290237135486    0.495895847879296    0.5055756391059926    0.5254015024520012    0.5362149446982829    
  0.5308181238895904    0.5248646067662712    0.5308181708405803    0.5362148825353689    0.5254015182067999    
  0.5055756543358723    0.495895847879296    0.5049043229266765    0.525401442799886    0.5695593377882141    
  0.5883891207609984    0.557406595040679    0.5323269198218388    0.5574065797273815    0.5883891822294369    
  0.5695592327568875    0.525401576733975    0.5049043229266765    0.5049032412713451    0.5362148276352746    
  0.5883892215953646    0.5472325662744253    0.4075655055162016    0.3360761555459604    0.4075654923389009    
  0.5472326513579114    0.5883892332371025    0.5362148831414162    0.5049032412713451    0.49589693309306354    
  0.5308180995766337    0.5574066279144457    0.407565480097849    0.1909458496756156    0.11729659965931898    
  0.19094588996310302    0.4075654288092889    0.5574065868991362    0.5308181338115945    0.49589693309306354    
  0.4902279200535272    0.524864635375492    0.5323269767885156    0.3360761997711045    0.11729660272293979    
  0.05831586211614567    0.11729663530654026    0.3360761615396023    0.532326982831104    0.5248646328086234    
  0.4902279200535272    0.4958969154132011    0.5308180618303014    0.557406578355679    0.40756550259325525    
  0.19094587310285077    0.1172966028867875    0.19094587049030778    0.40756547248168734    0.5574066021638462    
  0.5308181471862331    0.4958969154132011    0.5049032210082699    0.5362148321432835    0.5883892543564715    
  0.5472325982809543    0.4075655062918813    0.33607617085906694    0.4075655279746653    0.5472325515861293    
  0.5883891122533852    0.53621490325666    0.5049032210082699    0.5049043008343942    0.5254015260524151    
  0.5695592782278068    0.5883891252006719    0.5574066591043239    0.5323269837210298    0.5574066223579105    
  0.5883892203187413    0.5695592889791248    0.5254015367902398    0.5049043008343942    0.4958958516446338    
  0.5055756435541745    0.5254015279896139    0.5362149041361773    0.5308180882017258    0.5248645890081425    
  0.5308181558471847    0.5362148121957696    0.5254014778862783    0.5055756999775057    0.4958958516446338    
  0.4902290237135486    0.4958958297797397    0.5049042865608779    0.5049032066092866    0.49589693999093004    
  0.4902278962044076    0.4958970006514141    0.5049031900104409    0.504904299139817    0.49589586190268115    
  0.4902290237135486    0.5248634683742196    0.5308192030461877    0.5362137275560727    0.525402666396676    
  0.5055745643699744    0.49589694969884446    0.5055745578727628    0.5254025907548864    0.5362137183493766    
  0.5308192414344657    0.5248634683742196    0.5308192393529699    0.5399499735704533    0.5549530172199596    
  0.5549518544112955    0.539951152777615    0.5308181552404618    0.5399511521384462    0.5549518522782162    
  0.5549529886906484    0.5399500153734437    0.5308192393529699    0.5362137372859751    0.554952990223236    
  0.5937557848085434    0.6077304793555729    0.5791694232023014    0.5574065291484227    0.5791693986038158    
  0.6077304749356157    0.593755737148256    0.5549530048874136    0.5362137372859751    0.525402639437901    
  0.5549518459524274    0.6077305071534969    0.5846577729505874    0.47066090235489605    0.4075654644715674    
  0.4706609024239904    0.5846578676774894    0.6077305221917243    0.5549518893636407    0.525402639437901    
  0.5055744971007882    0.5399511435082724    0.5791694044732473    0.47066089561446756    0.27114769017559    
  0.19094584970464382    0.2711477125102543    0.4706608334835351    0.579169342460003    0.5399511512407407    
  0.5055744971007882    0.49589703314927314    0.5308180948816474    0.5574065793798576    0.40756552871591156    
  0.19094586259966612    0.11729662139199803    0.19094589363204434    0.4075655113148254    0.557406663935301    
  0.5308180876894193    0.49589703314927314    0.5055745149318605    0.5399511442640521    0.5791694456384292    
  0.4706608965747821    0.2711476950748106    0.19094585908087988    0.271147679066909    0.4706608475375453    
  0.5791694083623966    0.5399511486208102    0.5055745149318605    0.5254026348106542    0.5549518275238707    
  0.6077305560836174    0.5846577697133938    0.4706608790577614    0.40756542363984    0.4706609086000401    
  0.5846578624691623    0.6077304903453552    0.5549518997922259    0.5254026348106542    0.5362137245051088    
  0.5549529814749253    0.5937557236423401    0.6077304532802026    0.5791694664460167    0.5574066064016204    
  0.5791693845515166    0.6077305008581292    0.5937557237759937    0.5549530242388698    0.5362137245051088    
  0.5308192545618952    0.5399500043803921    0.5549530301668015    0.5549518923524098    0.539951096255463    
  0.5308180261786679    0.5399511720341795    0.5549518292166729    0.5549529745859765    0.539950007734975    
  0.5308192545618952    0.5248634683742196    0.5308192030461877    0.5362137275560727    0.525402666396676    
  0.5055745643699744    0.49589694969884446    0.5055745578727628    0.5254025907548864    0.5362137183493766    
  0.5308192414344657    0.5248634683742196    0.5323281750281887    0.5574054515918083    0.5883903521391225    
  0.5695581216681983    0.5254026698648788    0.5049031620098462    0.5254026757311292    0.569558050649582    
  0.58839029963225    0.5574055008761953    0.5323281750281887    0.5574054209673228    0.5791705697500076    
  0.607729334284356    0.59375692898176    0.5549518469660562    0.5362148614482168    0.5549519197816041    
  0.5937569175095375    0.6077293018587651    0.5791705935815324    0.5574054209673228    0.588390362924441    
  0.6077292846042098    0.6406243734298466    0.6406230718680391    0.6077304801395138    0.5883890913031254    
  0.6077305119685098    0.6406230941205564    0.6406242630013868    0.6077293575445128    0.588390362924441    
  0.5695581097567248    0.5937568391122223    0.6406231387226736    0.6434362723259877    0.5846578180917228    
  0.5472325672737322    0.5846578122800283    0.6434363411848663    0.6406230801082367    0.5937568863714419    
  0.5695581097567248    0.5254026109754367    0.5549518708626142    0.6077304972372858    0.5846578135255781    
  0.4706608706915257    0.4075654359211457    0.4706609187677642    0.5846577138418678    0.607730476217128    
  0.5549519335446239    0.5254026109754367    0.5049031808409805    0.5362148798232246    0.5883891815759242    
  0.5472325908951988    0.4075654611645115    0.3360762102098063    0.4075655311824913    0.547232589874898    
  0.5883892262432392    0.5362148549028536    0.5049031808409805    0.5254026205610891    0.5549519003388417    
  0.6077305255308927    0.5846578151597582    0.47066090851394876    0.4075655003652864    0.47066090612902933    
  0.5846577392980706    0.6077304663793507    0.5549518634796001    0.5254026205610891    0.5695580550717029    
  0.593756890507458    0.6406230895817977    0.6434362049778086    0.5846578170849402    0.5472325337100816    
  0.584657855698821    0.643436341669481    0.6406230521510469    0.593756953884324    0.5695580550717029    
  0.5883903371108267    0.6077292864079388    0.6406243545067632    0.6406230919967745    0.6077304929641735    
  0.5883891551575489    0.6077305388192739    0.6406231146011557    0.6406242602764879    0.6077293338365346    
  0.5883903371108267    0.5574053986536908    0.5791705915864572    0.607729273039548    0.5937569758053056    
  0.5549518694556047    0.5362147951134664    0.55495195143166    0.5937568493334283    0.6077292871098176    
  0.5791706058011971    0.5574053986536908    0.5323281750281887    0.5574054515918083    0.5883903521391225    
  0.5695581216681983    0.5254026698648788    0.5049031620098462    0.5254026757311292    0.569558050649582    
  0.58839029963225    0.5574055008761953    0.5323281750281887    0.3360752522705835    0.407566495564336    
  0.5472314530452272    0.5883903587839276    0.5362137360713329    0.5049043146365062    0.5362137660206023    
  0.5883902938309804    0.547231394912627    0.4075665617983346    0.3360752522705835    0.40756647930386375    
  0.47065983133915557    0.5846589410390608    0.6077292865607626    0.5549530167491621    0.525401519983216    
  0.5549530623377953    0.6077292737217346    0.5846589361702713    0.4706597995181835    0.40756647930386375    
  0.5472314225018955    0.5846589778948919    0.6434351196427875    0.6406242845034146    0.5937557114035211    
  0.5695592231622002    0.5937557341562144    0.6406243037368409    0.6434350850500843    0.5846589802164412    
  0.5472314225018955    0.5883903355079546    0.6077292393551735    0.6406243451131454    0.6406230199636881    
  0.6077305152123029    0.58838916431577    0.6077305068959199    0.6406231096362269    0.6406243260601183    
  0.6077293026778356    0.5883903355079546    0.5362137099115981    0.5549530363380878    0.5937557260736022    
  0.6077305245752467    0.5791693903775851    0.557406573995319    0.5791694647160592    0.607730452426393    
  0.5937556449594836    0.5549530592252762    0.5362137099115981    0.5049043227723038    0.5254014678892202    
  0.5695592427327604    0.5883891882030261    0.5574066212240412    0.5323269802552996    0.5574066886177291    
  0.5883891708727634    0.5695592797434058    0.5254015047882515    0.5049043227723038    0.5362136714999477    
  0.5549530238085062    0.5937557214872337    0.6077305550976959    0.5791693658828351    0.5574066210383228    
  0.5791693887358018    0.6077304523768333    0.5937556717752679    0.554953021550995    0.5362136714999477    
  0.5883903177860418    0.6077293190958529    0.6406243550150194    0.6406230243964197    0.6077305052411572    
  0.5883890983965617    0.6077305467547816    0.640623158952507    0.6406242731590258    0.607729346901023    
  0.5883903177860418    0.5472314592093126    0.5846589488957971    0.6434350878288756    0.6406242783786327    
  0.5937557661519426    0.5695592186272842    0.5937557451060278    0.6406243218984903    0.6434350820256473    
  0.5846589934086591    0.5472314592093126    0.4075664608126756    0.4706598467647361    0.58465895368878    
  0.6077293543700488    0.5549529759127949    0.5254014647592838    0.5549530944813189    0.6077292747682699    
  0.5846589624716262    0.4706598577759583    0.4075664608126756    0.3360752522705835    0.407566495564336    
  0.5472314530452272    0.5883903587839276    0.5362137360713329    0.5049043146365062    0.5362137660206023    
  0.5883902938309804    0.547231394912627    0.4075665617983346    0.3360752522705835    0.11729727059247036    
  0.19094505036511977    0.4075665387332603    0.5574054592244444    0.5308192425582631    0.49589585359883265    
  0.5308192695492288    0.5574054154104355    0.4075665128126043    0.1909450820193963    0.11729727059247036    
  0.19094508839058347    0.2711485646472858    0.47065978307033907    0.5791706431311783    0.5399499915395612    
  0.5055756693780546    0.5399500194101219    0.5791705289783201    0.4706598146543795    0.2711485757151946    
  0.19094508839058347    0.40756648322593975    0.4706598149087284    0.5846590114054514    0.6077293104091709    
  0.5549530348141106    0.5254014542280941    0.5549530137882457    0.6077292898994064    0.5846589742671437    
  0.4706598029839452    0.40756648322593975    0.5574054958003115    0.5791705641297341    0.6077293252934374    
  0.5937568502706018    0.5549518819980911    0.5362148171586354    0.5549518811728438    0.5937569605880901    
  0.6077293386814159    0.579170605294056    0.5574054958003115    0.5308192423873485    0.5399499655072443    
  0.554953066322188    0.5549518338274738    0.5399511258785719    0.5308180710218917    0.539951137541849    
  0.5549518026924671    0.5549529609769983    0.5399499418362393    0.5308192423873485    0.49589586395033775    
  0.5055756328291421    0.5254014734868763    0.5362149081570012    0.530818087502575    0.5248646548532175    
  0.5308181625918923    0.5362148699063649    0.5254015183327926    0.5055756487045636    0.49589586395033775    
  0.5308192727932446    0.5399499966383585    0.5549529959290621    0.5549518782506706    0.5399511571420721    
  0.5308180836323536    0.5399511392730275    0.5549518369575445    0.5549530139135329    0.5399499780224855    
  0.5308192727932446    0.5574054373648286    0.5791705293747389    0.6077293312318094    0.5937569386642196    
  0.5549518702545911    0.5362148013645807    0.5549518790029633    0.5937569374043512    0.6077293158184073    
  0.5791706314437814    0.5574054373648286    0.4075665171078826    0.47065975330563314    0.5846589522023001    
  0.6077292410438014    0.5549530692347875    0.5254014782236508    0.5549530048198918    0.607729316417169    
  0.5846589278970724    0.470659801736297    0.4075665171078826    0.1909450766090944    0.2711485959945594    
  0.4706598283191096    0.5791705919205294    0.5399499310492767    0.5055755865530371    0.5399500057668887    
  0.5791705734566902    0.47065978262588937    0.2711485740784356    0.1909450766090944    0.11729727059247036    
  0.19094505036511977    0.4075665387332603    0.5574054592244444    0.5308192425582631    0.49589585359883265    
  0.5308192695492288    0.5574054154104355    0.4075665128126043    0.1909450820193963    0.11729727059247036    
  0.05831536415560829    0.11729725794892723    0.3360751897656814    0.532328160575778    0.5248634514898841    
  0.4902290242458218    0.5248635132863105    0.5323281118258782    0.3360752012371918    0.11729727564402581    
  0.05831536415560829    0.11729726864561034    0.19094507519344484    0.40756650931332583    0.5574055479992551    
  0.5308192549058242    0.49589581633461305    0.5308193158984177    0.5574054799833557    0.4075665180521122    
  0.19094507696237784    0.11729726864561034    0.3360752230989787    0.40756646620524195    0.5472315162768524    
  0.5883903099953761    0.536213685687492    0.504904257955422    0.5362136832007253    0.588390342981436    
  0.5472314416846885    0.40756655392987307    0.3360752230989787    0.5323281729160145    0.5574054245929679    
  0.5883903957700686    0.5695580756714024    0.5254026820858945    0.5049031617823171    0.5254026448440154    
  0.5695581610933145    0.5883903822123292    0.5574055108927121    0.5323281729160145    0.5248634536912982    
  0.5308192672076641    0.5362137025958779    0.5254026485010105    0.5055745039286548    0.4958969272563804    
  0.5055745731014157    0.5254025742382441    0.5362137032484176    0.5308192883695577    0.5248634536912982    
  0.4902290494685591    0.4958958217425118    0.504904335310878    0.5049032037112441    0.4958969561435433    
  0.49022787001324575    0.495897025514846    0.5049031860793287    0.5049043036138968    0.495895846954435    
  0.4902290494685591    0.524863430819318    0.5308192080913561    0.5362136586498057    0.5254026904462019    
  0.5055745397698169    0.4958969501992678    0.505574556652306    0.5254026124353715    0.5362137004773915    
  0.5308192777635391    0.524863430819318    0.5323281705272425    0.5574054141357909    0.588390429110039    
  0.5695580827645468    0.5254026712906438    0.5049031828083996    0.5254026716687558    0.5695580531960027    
  0.5883903201254862    0.5574054982836655    0.5323281705272425    0.3360752058567713    0.4075665287859822    
  0.5472314442062914    0.5883903037909729    0.5362137450344442    0.5049043267615211    0.5362137004541425    
  0.5883903966010425    0.5472314994503557    0.4075665258596011    0.3360752058567713    0.11729728652655214    
  0.19094507141372863    0.40756652800942267    0.557405493432733    0.5308192305875843    0.49589581581836956    
  0.5308192943064854    0.5574053904849835    0.4075664791547144    0.1909450908418786    0.11729728652655214    
  0.05831536415560829    0.11729725794892723    0.3360751897656814    0.532328160575778    0.5248634514898841    
  0.4902290242458218    0.5248635132863105    0.5323281118258782    0.3360752012371918    0.11729727564402581    
  0.05831536415560829    
  END_DATAGRID_3D    
  END_BLOCK_DATAGRID_3D    