#     DFTpy    
  CRYSTAL 
    
  PRIMVEC    
  1.1295443167720547    -1.9564281460498731    0.0    
  1.1295443167720547    1.9564281460498731    0.0    
  0.0    0.0    2.126167577586207    
  PRIMCOORD    
  1    1    
  Si    0.0    0.0    0.0    
  BEGIN_BLOCK_DATAGRID_3D    
  3d_datagrid_density    
  BEGIN_DATAGRID_3D#0    
  11    11    11    
  0.0    0.0    0.0    
  1.1295443167720547    -1.9564281460498731    0.0    
  1.1295443167720547    1.9564281460498731    0.0    
  0.0    0.0    2.126167577586207    
  0.050264232937031854    0.0918732817923319    0.2569841180378679    0.4754887067450519    0.5615660535433444    
  0.565149446318851    0.5615660225974013    0.47548870121683534    0.2569841145143954    0.09187330022873612    
  0.050264232937031854    0.09187329485406376    0.09189455435648342    0.19928238357470066    0.4061993738122217    
  0.5425198349534128    0.5606193705289813    0.5606135622745356    0.5425346998330384    0.40613359658101594    
  0.19933426662725687    0.09187329485406376    0.25698410400086674    0.19928237392380058    0.2570007494321068    
  0.4061617320888982    0.5294729335582918    0.5523362856936914    0.5440944526914826    0.5523219928138308    
  0.5295442743293137    0.4061336248114086    0.25698410400086674    0.4754886658660224    0.406199328493639    
  0.40616176396856524    0.4754955214299341    0.5425116992447238    0.5523909983552125    0.5343346656283029    
  0.5343541964581556    0.552321908767082    0.5425346681458747    0.4754886658660224    0.5615660218400215    
  0.542519881848477    0.529472939023235    0.5425116633274016    0.5615715744016369    0.5606235199218521    
  0.5440379849371603    0.5343346938825672    0.5440944778675826    0.5606135382524864    0.5615660218400215    
  0.5651494072757995    0.5606193999728518    0.5523362721134595    0.5523910113495499    0.5606235113685055    
  0.5651334525908599    0.5606235145278003    0.5523910274380134    0.552336279728368    0.5606194185818121    
  0.5651494072757995    0.5615660656131902    0.560613568075757    0.5440944275651632    0.5343346667401606    
  0.5440379797245637    0.5606235209451058    0.5615715991996514    0.5425116922437535    0.5294728906157958    
  0.5425198187677809    0.5615660656131902    0.4754886576433052    0.5425346485023614    0.5523220121196281    
  0.5343542010296676    0.5343346955078935    0.5523910216376373    0.542511664513974    0.4754955107531823    
  0.4061617618097642    0.4061993522078034    0.4754886576433052    0.2569841310386139    0.40613359427751883    
  0.5295443023935174    0.5523219925114108    0.5440944225619125    0.5523362848473451    0.5294729278606377    
  0.4061617485652373    0.25700070836028094    0.19928240645746914    0.2569841310386139    0.0918732939017467    
  0.19933428437056977    0.4061336032398646    0.5425346552359656    0.5606135661822672    0.5606194043302811    
  0.5425198462565807    0.40619940760010925    0.19928239582749574    0.09189455772933083    0.0918732939017467    
  0.050264232937031854    0.0918732817923319    0.2569841180378679    0.4754887067450519    0.5615660535433444    
  0.565149446318851    0.5615660225974013    0.47548870121683534    0.2569841145143954    0.09187330022873612    
  0.050264232937031854    0.08904635689627735    0.13879930285947112    0.3030209616710238    0.4822407711875844    
  0.5365587215491344    0.5329920805106335    0.5365587127574103    0.4822407755204169    0.3030209674445571    
  0.13879931219321232    0.08904635689627735    0.1387993027486141    0.1387993941031534    0.2493765620056281    
  0.4288849257944893    0.5260649710740479    0.5290736739568288    0.5290835093003534    0.5260636781035338    
  0.42883679859061147    0.24941571070142582    0.1387993027486141    0.3030209308895875    0.24937654354978472    
  0.3030608958287755    0.4288561422453969    0.5169900398297631    0.5220566916870489    0.5106895613063523    
  0.5220431221077564    0.5170540832995371    0.42883685054248705    0.3030209308895875    0.48224074174140735    
  0.4288848796445328    0.42885615047052594    0.48221678176182203    0.5260512760359677    0.5221033304565247    
  0.5011191952132215    0.501137274995475    0.5220430320294068    0.5260636082269237    0.48224074174140735    
  0.5365587273713438    0.5260650448630705    0.5169900380015142    0.5260512975837034    0.5365950347210889    
  0.5290838716907144    0.5106417333412387    0.5011192089097062    0.5106895639684537    0.5290834524505956    
  0.5365587273713438    0.5329920336321097    0.5290737058461802    0.5220566816439255    0.5221033312580923    
  0.5290838755065808    0.5329482826345936    0.5290838579241931    0.522103326792817    0.5220566689754752    
  0.5290737023271769    0.5329920336321097    0.5365587652852054    0.5290835003985853    0.5106895357587912    
  0.5011191910176015    0.5106417278356095    0.529083886136108    0.5365950702995395    0.5260513025815017    
  0.5169900163953336    0.5260649800585244    0.5365587652852054    0.4822407313105826    0.5260636307032576    
  0.5220431049645416    0.5011372816134221    0.5011191948304989    0.5221033478166697    0.5260513161232933    
  0.48221677084048437    0.42885612748720875    0.4288849151337793    0.4822407313105826    0.30302096275430956    
  0.4288367756060037    0.51705410680858    0.5220430703850769    0.5106895231274601    0.522056706278172    
  0.5169900660620613    0.42885612171165677    0.3030608644140129    0.24937659506694773    0.30302096275430956    
  0.13879930409594496    0.24941572773719609    0.4288367982873246    0.526063636352747    0.5290834901888497    
  0.5290736813281613    0.5260649683801274    0.42888494177554864    0.24937657366848281    0.13879936559078382    
  0.13879930409594496    0.08904635689627735    0.13879930285947112    0.3030209616710238    0.4822407711875844    
  0.5365587215491344    0.5329920805106335    0.5365587127574103    0.4822407755204169    0.3030209674445571    
  0.13879931219321232    0.08904635689627735    0.2519665642374946    0.30281517445315154    0.41691501927700403    
  0.48411935393853106    0.4709447614464526    0.45319391773037715    0.47094474683634757    0.4841193273261683    
  0.4169150556265062    0.3028151817672649    0.2519665642374946    0.3028152024923358    0.3027761589692985    
  0.3857323244739172    0.47002376130006623    0.47826104158260613    0.45113158231169154    0.45114609467563666    
  0.47825067494235246    0.470007956571083    0.3857384266797982    0.3028152024923358    0.4169150072429273    
  0.38573229992227176    0.4169698062091469    0.47000278462109363    0.47801956789091077    0.44751124474586157    
  0.4299428403441522    0.4475049677865212    0.47804795668258404    0.4700080149046384    0.4169150072429273    
  0.4841193158840037    0.4700237273666822    0.47000283679834076    0.484088024640024    0.47825272170515787    
  0.44753400361529055    0.42101713226626397    0.4210290848534877    0.4475049428578192    0.4782506505068256    
  0.4841193158840037    0.47094477867403944    0.47826109573626197    0.47801956873030566    0.47825273122366374    
  0.47098118771075687    0.4511377058249416    0.42992364044051695    0.42101715493343556    0.42994285795972104    
  0.451146060952674    0.47094477867403944    0.45319391040992746    0.4511315975978078    0.44751118368299136    
  0.44753402700725425    0.45113771144273485    0.4531596701569486    0.45113769776638585    0.44753401804012244    
  0.4475112041646944    0.4511316035467362    0.45319391040992746    0.4709447791622635    0.45114606840212423    
  0.42994284123561677    0.4210171312955392    0.42992363906585224    0.45113770016028787    0.47098114870781993    
  0.47825275079268864    0.4780195592715713    0.4782610412436857    0.4709447791622635    0.4841193001528744    
  0.47825061760398424    0.447504965329691    0.4210290999860326    0.42101711958322746    0.4475340214556092    
  0.47825270771413597    0.4840880699304443    0.4700028112661677    0.47002376765557985    0.4841193001528744    
  0.4169150507901293    0.4700079574681936    0.4780479471320571    0.447504944221558    0.4299428336683269    
  0.44751122133703514    0.47801958789021476    0.47000277806395957    0.41696978445797284    0.38573233931835993    
  0.4169150507901293    0.3028151694947774    0.38573845502958604    0.4700080034652685    0.4782506202278505    
  0.4511460824780062    0.4511315940372939    0.47826105423947857    0.4700238001914445    0.38573229671105846    
  0.30277611425019635    0.3028151694947774    0.2519665642374946    0.30281517445315154    0.41691501927700403    
  0.48411935393853106    0.4709447614464526    0.45319391773037715    0.47094474683634757    0.4841193273261683    
  0.4169150556265062    0.3028151817672649    0.2519665642374946    0.5173581199552103    0.5244954130615559    
  0.514413936476378    0.45843723291317595    0.39297566324315136    0.3657668758060346    0.39297565618075786    
  0.45843724228259775    0.5144139652657052    0.524495428065009    0.5173581199552103    0.5244954412548694    
  0.5244786772275346    0.5213886383789165    0.4811728036280828    0.4136178950303782    0.3654310567810987    
  0.36543305269391063    0.41361365475381323    0.4811753486065511    0.5213819060072298    0.5244954412548694    
  0.5144139025232275    0.5213885609898452    0.5144268033042313    0.48116911322903533    0.42071231740173376    
  0.36490256560791273    0.3431936107266251    0.36490599139180235    0.4207113684772958    0.48117537460133586    
  0.5144139025232275    0.4584372035585136    0.4811727232003755    0.48116914187919496    0.4584317660874403    
  0.4136178652485158    0.3649056580312308    0.33496583484286463    0.33496097876563374    0.36490596227587796    
  0.4136136715064402    0.4584372035585136    0.3929756632815031    0.4136179672075574    0.4207122972381051    
  0.4136178645523442    0.39297821961629464    0.3654315900031898    0.3431905623084975    0.3349658642222195    
  0.34319359654277365    0.3654330399593263    0.3929756632815031    0.3657668683363152    0.3654310835658769    
  0.36490251312794186    0.3649056878265497    0.36543158653768765    0.3657651193238484    0.3654315764781853    
  0.36490567695263776    0.3649025392286948    0.3654310601100876    0.3657668683363152    0.39297568899289864    
  0.36543305065097387    0.3431935906563952    0.3349658319562075    0.34319057063688396    0.3654315767324578    
  0.3929782190604435    0.4136179037902064    0.4207123018950155    0.41361789361671214    0.39297568899289864    
  0.45843719248771553    0.4136136268910947    0.36490599367576504    0.33496099031457666    0.33496583177990585    
  0.3649056814705539    0.41361786100188846    0.45843177761719067    0.4811691503316304    0.48117278146108805    
  0.45843719248771553    0.5144139818523408    0.48117530770438327    0.4207113813614519    0.364905978841018    
  0.34319359253293497    0.36490254938515554    0.4207122927780814    0.4811691071343674    0.5144267965758237    
  0.5213886354197683    0.5144139818523408    0.5244954101444325    0.5213819729716215    0.48117537466920823    
  0.4136136181225317    0.3654330493540033    0.36543108033594585    0.4136179306500454    0.48117280427109066    
  0.5213886139756578    0.5244786164038766    0.5244954101444325    0.5173581199552103    0.5244954130615559    
  0.514413936476378    0.45843723291317595    0.39297566324315136    0.3657668758060346    0.39297565618075786    
  0.45843724228259775    0.5144139652657052    0.524495428065009    0.5173581199552103    0.6872337602415248    
  0.6472837107706068    0.5419954834679488    0.4207385212208093    0.3347901002876226    0.305039316796589    
  0.3347900669452355    0.4207385028848916    0.5419954981274949    0.6472837195893287    0.6872337602415248    
  0.6472837288777835    0.6472938084798194    0.5742437330799839    0.4610188228657348    0.36020942430428693    
  0.3051474869765246    0.3051439448982968    0.36021447170327714    0.46101794837684695    0.5742442040476248    
  0.6472837288777835    0.5419954480695133    0.5742436955868908    0.5419881727622035    0.4610169389640282    
  0.3703425590136105    0.30553268641235776    0.2827817452049802    0.3055322603918838    0.3703373899491131    
  0.4610180010469485    0.5419954480695133    0.4207385158001651    0.46101877426288823    0.46101695943127574    
  0.42074569595296346    0.36021167687488914    0.30552944550155087    0.2747482352179921    0.2747495155556205    
  0.3055322147162254    0.36021446679119007    0.4207385158001651    0.3347900894162527    0.3602094626520534    
  0.37034257415531735    0.36021167351171546    0.33478560789093453    0.3051456174362597    0.28278511990360017    
  0.2747482547518782    0.28278173974962145    0.3051439220156394    0.3347900894162527    0.3050393009623519    
  0.30514751415119756    0.30553265730562706    0.30552945531248094    0.30514562073783513    0.3050434917316982    
  0.3051456167003528    0.3055294517776358    0.3055326837433078    0.3051475115271727    0.3050393009623519    
  0.33479011121386    0.3051439508172324    0.2827817281378276    0.27474822834719076    0.28278512842695636    
  0.3051456238176262    0.33478560799253937    0.3602116830045513    0.37034252839082193    0.36020943531568245    
  0.33479011121386    0.4207384714306632    0.3602144512765292    0.305532266331743    0.27474952234553507    
  0.27474822771823537    0.3055294564696118    0.36021167854635405    0.4207456805739524    0.46101694462915865    
  0.4610188008230267    0.4207384714306632    0.541995515654743    0.46101791053523616    0.37033740517743197    
  0.30553223228777937    0.28278172120594725    0.3055326820482697    0.37034259119403357    0.46101694183589714    
  0.541988112585128    0.5742437687978498    0.541995515654743    0.6472837012343873    0.5742442361688973    
  0.46101797992325244    0.36021445132523383    0.3051439487841037    0.30514749755276854    0.3602094053675259    
  0.46101887734051294    0.574243751108881    0.6472937504465246    0.6472837012343873    0.6872337602415248    
  0.6472837107706068    0.5419954834679488    0.4207385212208093    0.3347901002876226    0.305039316796589    
  0.3347900669452355    0.4207385028848916    0.5419954981274949    0.6472837195893287    0.6872337602415248    
  0.7262731966258813    0.6720378868594438    0.5404667599109297    0.4036662969862348    0.31399162346526804    
  0.28418253156192824    0.313991604030036    0.4036662854035317    0.5404667461823197    0.6720379142345366    
  0.7262731966258813    0.6720379208037079    0.6720413922208491    0.5793738407994377    0.4478750852619657    
  0.3400865286023915    0.2842103657302386    0.2842109729041791    0.3400867973584523    0.44788546052260897    
  0.5793616782035641    0.6720379208037079    0.5404667199113321    0.5793738132135458    0.5404520585663741    
  0.4478871664506014    0.35075646179592196    0.284524490665369    0.2618009345229674    0.2845236243562906    
  0.3507483192775528    0.447885503833656    0.5404667199113321    0.4036662670201185    0.4478750212955982    
  0.4478871799221269    0.40366664101301863    0.34008532131533536    0.2845167643189454    0.2537376706587104    
  0.2537379237850058    0.2845235781124918    0.3400867787105672    0.4036662670201185    0.3139916069249814    
  0.34008655901819773    0.3507564632444717    0.3400852920223061    0.3139927973477291    0.2842115484094642    
  0.26180713715827236    0.25373768446019596    0.2618009499832249    0.2842109605432729    0.3139916069249814    
  0.28418250998915334    0.28421038690452516    0.28452448151615933    0.2845167692386548    0.28421154552950345    
  0.2841802174511535    0.28421153613928707    0.28451677882816323    0.2845244999136345    0.2842103902938951    
  0.28418250998915334    0.3139916409433848    0.28421098382834364    0.26180091761835    0.25373766982775336    
  0.2618071298293941    0.28421153530804993    0.3139928130583471    0.34008531579760687    0.3507564192350086    
  0.3400865139450005    0.3139916409433848    0.4036662508352959    0.34008676315274067    0.28452363445432993    
  0.2537379279547833    0.25373769382166006    0.284516775321216    0.3400852952135658    0.4036666379950925    
  0.44788717368537606    0.4478750483261949    0.4036662508352959    0.5404667742687868    0.44788545379983946    
  0.35074834229734325    0.2845236242376658    0.26180091649738    0.28452448699895494    0.3507564484704397    
  0.4478871662216853    0.5404520036989782    0.579373902183853    0.5404667742687868    0.6720378667633444    
  0.5793617161817789    0.44788547857404865    0.3400867601632697    0.28421097285092495    0.28421037164040175    
  0.340086524109451    0.447875103302019    0.5793738611295762    0.6720413583892095    0.6720378667633444    
  0.7262731966258813    0.6720378868594438    0.5404667599109297    0.4036662969862348    0.31399162346526804    
  0.28418253156192824    0.313991604030036    0.4036662854035317    0.5404667461823197    0.6720379142345366    
  0.7262731966258813    0.6872337625318925    0.6472837162003306    0.5419954938558391    0.4207385164618809    
  0.3347900837611987    0.30503931933329126    0.33479007300942987    0.42073851348519875    0.5419955059481116    
  0.6472837294794945    0.6872337625318925    0.6472837378696776    0.6472938065546066    0.574243715145661    
  0.46101881186999755    0.3602094140470728    0.3051474875308887    0.3051439496903275    0.36021448853553556    
  0.46101796418278557    0.5742442032899685    0.6472837378696776    0.5419954454065568    0.5742436797942312    
  0.5419881732438169    0.46101696466049225    0.3703425630277808    0.30553267246285537    0.28278174237682674    
  0.30553226570997016    0.37033739191521703    0.4610180068087262    0.5419954454065568    0.4207384999461508    
  0.4610187594786347    0.4610169674325307    0.4207456973947038    0.3602116834553184    0.30552945705607565    
  0.2747482357893224    0.27474952074218284    0.3055322086380841    0.36021444527100505    0.4207384999461508    
  0.33479009133914844    0.3602094591207092    0.3703425609452688    0.3602116861766573    0.3347855878066666    
  0.3051456141790088    0.2827851221151891    0.2747482498864677    0.2827817411816852    0.30514392339659674    
  0.33479009133914844    0.305039289634799    0.3051475166511211    0.3055326614833557    0.30552945958507133    
  0.30514562611141055    0.30504347610269605    0.305145602060353    0.30552945580836094    0.30553267255551353    
  0.3051475026978554    0.305039289634799    0.33479011986931634    0.30514396325238974    0.2827817202073753    
  0.27474823267695986    0.2827851275457181    0.30514562287333113    0.3347856191509206    0.36021168910160867    
  0.3703425338077079    0.3602094165265943    0.33479011986931634    0.4207384766632229    0.36021447211050034    
  0.3055322498309397    0.2747495238165211    0.2747482349856591    0.3055294604211875    0.360211717765551    
  0.42074568726595535    0.4610169369517175    0.46101879984514627    0.4207384766632229    0.5419955060003288    
  0.4610179320669754    0.3703374205099798    0.30553222781730344    0.2827817163115909    0.30553268130885525    
  0.37034258428491024    0.4610169237597012    0.54198811138916    0.5742437753448835    0.5419955060003288    
  0.6472837139478418    0.5742442395394045    0.4610179664393309    0.3602144625334561    0.30514395297643576    
  0.30514749469403196    0.36020940435695    0.46101882252338083    0.574243728912942    0.6472937485024947    
  0.6472837139478418    0.6872337625318925    0.6472837162003306    0.5419954938558391    0.4207385164618809    
  0.3347900837611987    0.30503931933329126    0.33479007300942987    0.42073851348519875    0.5419955059481116    
  0.6472837294794945    0.6872337625318925    0.5173581209574794    0.5244954176643559    0.5144139306187127    
  0.45843725412968167    0.3929756706506589    0.3657668775034102    0.3929756409469887    0.45843721915447133    
  0.514413970369257    0.5244954143015829    0.5173581209574794    0.5244954385116091    0.5244786729258475    
  0.5213886243446421    0.48117279899407234    0.41361789859539455    0.365431060948151    0.36543305764895995    
  0.41361366441790576    0.481175321957731    0.5213819290133724    0.5244954385116091    0.5144139063820697    
  0.5213885940739312    0.5144268214961205    0.48116912662184597    0.4207123004149812    0.3649025637614443    
  0.34319359722691195    0.36490599255372197    0.4207113673698211    0.48117538178540037    0.5144139063820697    
  0.4584372094881922    0.48117275279638716    0.4811691764431856    0.4584317474818679    0.41361786728829886    
  0.3649056672898196    0.3349658322083181    0.3349609752528014    0.3649059686976497    0.4136136432508141    
  0.4584372094881922    0.3929756882562604    0.4136179524657015    0.42071230974702417    0.41361786687879026    
  0.3929782312644853    0.3654315918545549    0.3431905689229218    0.3349658610112395    0.343193616058765    
  0.36543302920661086    0.3929756882562604    0.3657668607752124    0.36543107824175447    0.3649025197012509    
  0.3649056850179794    0.3654315969406105    0.36576511899589376    0.36543157309151053    0.3649056687556347    
  0.364902542048695    0.3654310718798794    0.3657668607752124    0.39297567567355746    0.3654330601964705    
  0.34319359855862985    0.33496583681900305    0.3431905725004333    0.3654315801311959    0.39297819550045704    
  0.4136178898898912    0.42071230124883047    0.41361789693681617    0.39297567567355746    0.45843718919223825    
  0.41361362221104714    0.364905991976037    0.3349609927950847    0.3349658281626456    0.3649056757115692    
  0.4136178595734969    0.4584317823143148    0.48116914956692985    0.48117278756147286    0.45843718919223825    
  0.5144139532818397    0.48117532593824486    0.4207113678046516    0.3649059693263761    0.3431936044757473    
  0.3649025591257311    0.4207123221690043    0.48116910480853625    0.5144268022444509    0.5213886308068515    
  0.5144139532818397    0.5244954064244836    0.5213819735813401    0.4811753806310845    0.413613621675174    
  0.3654330541170024    0.36543107582611456    0.41361791350729027    0.4811728175861436    0.5213885814614313    
  0.5244786137639069    0.5244954064244836    0.5173581209574794    0.5244954176643559    0.5144139306187127    
  0.45843725412968167    0.3929756706506589    0.3657668775034102    0.3929756409469887    0.45843721915447133    
  0.514413970369257    0.5244954143015829    0.5173581209574794    0.2519665634473758    0.302815182243736    
  0.4169150354858499    0.4841193349278187    0.4709447672721039    0.4531939159662301    0.47094474723908786    
  0.4841193463723368    0.416915062619015    0.30281518513027406    0.2519665634473758    0.3028151983702214    
  0.3027761546318842    0.3857323348463431    0.47002378206026224    0.4782610415533882    0.4511315861201477    
  0.4511460826879194    0.4782506657742256    0.4700079797446029    0.3857383965171148    0.3028151983702214    
  0.4169150145557714    0.3857322752485606    0.4169697893026498    0.4700027812327906    0.4780195731025327    
  0.4475112414261782    0.429942846557516    0.4475049661838763    0.47804793951121427    0.47000800895911793    
  0.4169150145557714    0.4841192975666144    0.4700237082685148    0.4700028103645003    0.4840880551770486    
  0.4782527218074364    0.44753399180675213    0.421017114759835    0.4210290860762369    0.44750493281118464    
  0.47825066724384063    0.4841192975666144    0.470944765468849    0.47826111691440165    0.47801955395726936    
  0.4782527182822193    0.4709811803407431    0.45113770409226334    0.4299236241125963    0.4210171647746164    
  0.4299428371392013    0.4511460618180277    0.470944765468849    0.45319390618275657    0.45113161180542255    
  0.4475111754964881    0.4475340337690354    0.45113770202815207    0.45315966877260105    0.4511376902394826    
  0.44753402200955517    0.44751119322478117    0.4511315797016576    0.45319390618275657    0.47094478049034144    
  0.4511460917165328    0.42994282944444173    0.4210171233302176    0.42992364885380524    0.45113769085516403    
  0.47098117604836215    0.47825276012386575    0.47801955190866535    0.4782610350718091    0.47094478049034144    
  0.4841192939953546    0.47825063789219774    0.4475049697091299    0.4210291012317243    0.42101711951456655    
  0.44753402993703006    0.47825271764140365    0.4840880618427669    0.47000282230913587    0.4700237536901489    
  0.4841192939953546    0.4169150657854548    0.4700079541674735    0.47804796245406567    0.4475049483786322    
  0.4299428258469027    0.44751121714865333    0.4780195452710508    0.4700027667140188    0.41696977075350083    
  0.3857323349753222    0.4169150657854548    0.3028151704202432    0.3857384628644307    0.47000800597118925    
  0.4782506289129496    0.4511460847088159    0.45113160197267727    0.4782610628676693    0.4700237759264062    
  0.385732314354608    0.3027761265925405    0.3028151704202432    0.2519665634473758    0.302815182243736    
  0.4169150354858499    0.4841193349278187    0.4709447672721039    0.4531939159662301    0.47094474723908786    
  0.4841193463723368    0.416915062619015    0.30281518513027406    0.2519665634473758    0.08904635662188351    
  0.13879930062408546    0.30302096104054344    0.4822407794617973    0.5365587397258609    0.5329920658521959    
  0.5365587075791984    0.4822407471609376    0.3030209596249902    0.138799304334588    0.08904635662188351    
  0.13879930533117846    0.13879938496141198    0.24937657208906008    0.42888493864067806    0.5260649926336939    
  0.5290736687236195    0.5290834853181888    0.5260636425635202    0.42883678642794404    0.24941570653115874    
  0.13879930533117846    0.30302093399698576    0.24937654605001192    0.3030608937641644    0.4288561174396987    
  0.5169900355487181    0.5220567110529974    0.5106895538568326    0.5220431128987416    0.5170540788082744    
  0.42883683716017423    0.30302093399698576    0.48224076437420343    0.4288849003060949    0.4288561517043348    
  0.48221679366434594    0.5260512698255205    0.5221033157293579    0.501119193590302    0.5011372733933354    
  0.5220430360043155    0.5260636292089251    0.48224076437420343    0.5365587230195404    0.5260650382914905    
  0.5169900593931404    0.5260512858326927    0.5365950745851654    0.5290838696707938    0.5106417223566643    
  0.5011192278211541    0.5106895609536994    0.5290834574576735    0.5365587230195404    0.5329920486368275    
  0.5290737099466618    0.5220566799439456    0.5221033311703389    0.5290838789769466    0.5329482945838693    
  0.5290838704736119    0.5221033282583183    0.5220566883584231    0.5290736970455051    0.5329920486368275    
  0.5365587612575748    0.5290834908932059    0.5106895527587495    0.5011191965429657    0.5106417483646958    
  0.5290838767903344    0.5365950728408365    0.5260512894031686    0.5169899984901382    0.5260650004175744    
  0.5365587612575748    0.48224072217236025    0.5260636186127713    0.5220431160909197    0.5011372863694763    
  0.5011191873021694    0.5221033490567271    0.5260512793913872    0.4822167573520908    0.4288561353834244    
  0.4288849197074174    0.48224072217236025    0.30302096718667815    0.4288367559628655    0.5170540858330808    
  0.5220430743089541    0.5106895273456401    0.5220567024146193    0.516990072746866    0.42885612900624465    
  0.30306085415698575    0.24937658874186758    0.30302096718667815    0.1387992990251353    0.24941572559111622    
  0.4288367979596074    0.5260636270251227    0.5290834864997553    0.5290736934349909    0.5260649690408301    
  0.42888498912810413    0.24937658347533723    0.13879936533077786    0.1387992990251353    0.08904635662188351    
  0.13879930062408546    0.30302096104054344    0.4822407794617973    0.5365587397258609    0.5329920658521959    
  0.5365587075791984    0.4822407471609376    0.3030209596249902    0.138799304334588    0.08904635662188351    
  0.050264232937031854    0.0918732817923319    0.2569841180378679    0.4754887067450519    0.5615660535433444    
  0.565149446318851    0.5615660225974013    0.47548870121683534    0.2569841145143954    0.09187330022873612    
  0.050264232937031854    0.09187329485406376    0.09189455435648342    0.19928238357470066    0.4061993738122217    
  0.5425198349534128    0.5606193705289813    0.5606135622745356    0.5425346998330384    0.40613359658101594    
  0.19933426662725687    0.09187329485406376    0.25698410400086674    0.19928237392380058    0.2570007494321068    
  0.4061617320888982    0.5294729335582918    0.5523362856936914    0.5440944526914826    0.5523219928138308    
  0.5295442743293137    0.4061336248114086    0.25698410400086674    0.4754886658660224    0.406199328493639    
  0.40616176396856524    0.4754955214299341    0.5425116992447238    0.5523909983552125    0.5343346656283029    
  0.5343541964581556    0.552321908767082    0.5425346681458747    0.4754886658660224    0.5615660218400215    
  0.542519881848477    0.529472939023235    0.5425116633274016    0.5615715744016369    0.5606235199218521    
  0.5440379849371603    0.5343346938825672    0.5440944778675826    0.5606135382524864    0.5615660218400215    
  0.5651494072757995    0.5606193999728518    0.5523362721134595    0.5523910113495499    0.5606235113685055    
  0.5651334525908599    0.5606235145278003    0.5523910274380134    0.552336279728368    0.5606194185818121    
  0.5651494072757995    0.5615660656131902    0.560613568075757    0.5440944275651632    0.5343346667401606    
  0.5440379797245637    0.5606235209451058    0.5615715991996514    0.5425116922437535    0.5294728906157958    
  0.5425198187677809    0.5615660656131902    0.4754886576433052    0.5425346485023614    0.5523220121196281    
  0.5343542010296676    0.5343346955078935    0.5523910216376373    0.542511664513974    0.4754955107531823    
  0.4061617618097642    0.4061993522078034    0.4754886576433052    0.2569841310386139    0.40613359427751883    
  0.5295443023935174    0.5523219925114108    0.5440944225619125    0.5523362848473451    0.5294729278606377    
  0.4061617485652373    0.25700070836028094    0.19928240645746914    0.2569841310386139    0.0918732939017467    
  0.19933428437056977    0.4061336032398646    0.5425346552359656    0.5606135661822672    0.5606194043302811    
  0.5425198462565807    0.40619940760010925    0.19928239582749574    0.09189455772933083    0.0918732939017467    
  0.050264232937031854    0.0918732817923319    0.2569841180378679    0.4754887067450519    0.5615660535433444    
  0.565149446318851    0.5615660225974013    0.47548870121683534    0.2569841145143954    0.09187330022873612    
  0.050264232937031854    
  END_DATAGRID_3D    
  END_BLOCK_DATAGRID_3D    