#     DFTpy    
  CRYSTAL 
    
  PRIMVEC    
  1.1295443167720547    -1.9564281460498731    0.0    
  1.1295443167720547    1.9564281460498731    0.0    
  0.0    0.0    2.126167577586207    
  PRIMCOORD    
  1    1    
  Si    0.0    0.0    0.0    
  BEGIN_BLOCK_DATAGRID_3D    
  3d_datagrid_density    
  BEGIN_DATAGRID_3D#0    
  11    11    11    
  0.0    0.0    0.0    
  1.1295443167720547    -1.9564281460498731    0.0    
  1.1295443167720547    1.9564281460498731    0.0    
  0.0    0.0    2.126167577586207    
  0.05045260362110258    0.09215711258441933    0.25743139960641975    0.47560211706883576    0.5609535532784563    
  0.5642145251990077    0.5609535558731603    0.47560211649516715    0.25743139805922066    0.09215711745221512    
  0.05045260362110258    0.0921571122626329    0.09217821242486184    0.19970591197505574    0.4065034424373171    
  0.5421451258842873    0.5596665210389089    0.5596609640866566    0.5421598219369204    0.40643763205356936    
  0.19975776624967867    0.0921571122626329    0.2574313833600425    0.19970588626237434    0.2574482989499752    
  0.4064656816426599    0.5291756827638855    0.5513573594064124    0.5428517898455835    0.5513428035510286    
  0.5292472451068688    0.4064376066833253    0.2574313833600425    0.47560212693490883    0.4065034191761463    
  0.4064657144730197    0.4756088256355113    0.5421367233251873    0.5514122597024622    0.532982492444457    
  0.5330024937236285    0.5513428736656237    0.542159861853407    0.47560212693490883    0.5609535282433494    
  0.5421451388109026    0.5291756587396119    0.542136696183304    0.5609595471976832    0.5596707327492547    
  0.5427953129644884    0.5329825008663294    0.5428517912571057    0.5596609503108535    0.5609535282433494    
  0.5642144915632048    0.5596665316479296    0.5513573423467301    0.5514122571150677    0.5596707297895629    
  0.564198197068027    0.5596707138719786    0.5514122549352942    0.5513573702519466    0.55966654230925    
  0.5642144915632048    0.5609535448106171    0.559660931286656    0.5428517935161341    0.5329824979721692    
  0.5427953166855992    0.5596707618334904    0.5609595831398425    0.5421366553991126    0.5291756549149386    
  0.542145115618368    0.5609535448106171    0.4756020720564287    0.5421598621694682    0.5513428741782188    
  0.5330024583122372    0.5329824980101573    0.551412247906952    0.542136716388171    0.47560880519409204    
  0.40646570229033313    0.4065034491897627    0.4756020720564287    0.2574313725996254    0.4064376079708762    
  0.529247244950308    0.5513428425204799    0.5428517893955804    0.5513573686914568    0.5291756282122014    
  0.40646567215744683    0.25744832229894804    0.19970592028916714    0.2574313725996254    0.09215709279103458    
  0.19975776272085824    0.40643763517072046    0.5421598579120152    0.5596609610739872    0.5596665442619203    
  0.5421451259010375    0.40650341981948224    0.19970591697609716    0.09217820301670974    0.09215709279103458    
  0.05045260362110258    0.09215711258441933    0.25743139960641975    0.47560211706883576    0.5609535532784563    
  0.5642145251990077    0.5609535558731603    0.47560211649516715    0.25743139805922066    0.09215711745221512    
  0.05045260362110258    0.08927281238721058    0.1391124725669182    0.3034605450199505    0.48239723074642243    
  0.53614744740091    0.5323305357335494    0.5361474695266858    0.4823972552606162    0.3034605404647948    
  0.13911249092192254    0.08927281238721058    0.13911249440671974    0.1391121494795256    0.24980193074877313    
  0.42919554421300804    0.52583603226033    0.5283955487920647    0.5284054724267454    0.5258345609619911    
  0.4291474492475651    0.24984086900444488    0.13911249440671974    0.3034605125518701    0.24980191874911245    
  0.3035008864766297    0.4291664338940878    0.5168194937041907    0.5213530793936723    0.5097788755053845    
  0.5213393830116436    0.5168835369213138    0.429147469750145    0.3034605125518701    0.4823972121110968    
  0.4291955408766587    0.4291664524688828    0.4823732488394809    0.5258221902546244    0.5213998561471549    
  0.5001188234956959    0.5001371798837982    0.5213394402915976    0.5258346010749736    0.4823972121110968    
  0.5361474507887122    0.5258360191790472    0.5168195233401257    0.5258221827489021    0.5361839677475033    
  0.5284057343056612    0.5097310381177254    0.5001188191152576    0.5097788732754592    0.5284054496207381    
  0.5361474507887122    0.5323304785198648    0.5283955077381867    0.5213530385449793    0.5213998531464841    
  0.5284057116985788    0.5322866088761828    0.5284056877117406    0.5213998532287205    0.5213530596351025    
  0.5283955179817991    0.5323304785198648    0.5361474853887607    0.5284054535862645    0.5097788930955468    
  0.5001188141101577    0.5097310536657371    0.5284057615532854    0.536184015077583    0.5258221502693976    
  0.5168195102235901    0.5258359970481818    0.5361474853887607    0.4823971957009337    0.5258346224918852    
  0.5213394629951307    0.5001371730720946    0.5001188284308924    0.5213998636852073    0.5258221750757588    
  0.482373268996091    0.42916645253400726    0.4291955716615928    0.4823971957009337    0.3034604989785713    
  0.4291473977942197    0.5168835444612152    0.5213394089000924    0.5097788677340642    0.5213530698935364    
  0.5168194883132593    0.4291664152495609    0.3035009087620541    0.24980194149286059    0.3034604989785713    
  0.1391124799037355    0.24984085000562567    0.42914744198432286    0.5258345746058529    0.5284054594751282    
  0.5283955442197541    0.5258360645007728    0.4291955326087696    0.24980193832934813    0.13911213998605834    
  0.1391124799037355    0.08927281238721058    0.1391124725669182    0.3034605450199505    0.48239723074642243    
  0.53614744740091    0.5323305357335494    0.5361474695266858    0.4823972552606162    0.3034605404647948    
  0.13911249092192254    0.08927281238721058    0.2520271657914232    0.3029435898396035    0.4171703716601528    
  0.48433699552085147    0.4709785014636042    0.45313664727638037    0.4709785166672615    0.4843369515798191    
  0.4171703919301952    0.3029435991559895    0.2520271657914232    0.3029436236572879    0.3029044139132809    
  0.3859598640824693    0.4702765021063691    0.47835090746677617    0.4510595379939537    0.45107394692809105    
  0.4783405489184726    0.4702606673156615    0.38596597716935954    0.3029436236572879    0.41717032278560234    
  0.3859598591311113    0.4172253470037682    0.47025538130092764    0.4781224615471937    0.44741506667219316    
  0.4297633078042227    0.44740884369419753    0.4781507720926843    0.47026071603140185    0.41717032278560234    
  0.4843369194076784    0.47027649598948723    0.4702554318807097    0.484305716784117    0.47834252966461743    
  0.44743802313999714    0.4207924766417359    0.4208044594309141    0.4474088942429926    0.4783405885223688    
  0.4843369194076784    0.4709784929026467    0.4783508939670086    0.47812249969266213    0.47834249691042857    
  0.47101499201332536    0.4510656376260699    0.4297440193519676    0.42079248067496866    0.42976333074569406    
  0.4510739510641396    0.4709784929026467    0.4531366041651635    0.45105952874548944    0.4474150699544315    
  0.44743801545649536    0.4510656154297038    0.4531022345354403    0.4510655832892499    0.4474380148884288    
  0.4474150429837279    0.4510595481214159    0.4531366041651635    0.4709785176352292    0.45107393642572313    
  0.42976331613256935    0.42079246261777126    0.42974402927294225    0.45106564733075    0.47101502153685204    
  0.4783424737346773    0.4781225090233987    0.4783508787629871    0.4709785176352292    0.4843369342535455    
  0.47834056343814024    0.44740890048320836    0.42080444963198255    0.42079249031401567    0.4474379835583324    
  0.47834252683606815    0.4843057321977117    0.4702554032167033    0.47027653086443477    0.4843369342535455    
  0.4171703459277176    0.4702606324096182    0.4781507613007635    0.44740886113247885    0.4297632945592147    
  0.44741507745385717    0.47812246977822004    0.47025538342743106    0.4172253315211627    0.38595987408774507    
  0.4171703459277176    0.30294359516088704    0.38596598101361185    0.4702607154349265    0.47834053277952254    
  0.4510739221306809    0.4510595578085984    0.47835090429928667    0.4702764865320784    0.3859598946918113    
  0.3029044063911393    0.30294359516088704    0.2520271657914232    0.3029435898396035    0.4171703716601528    
  0.48433699552085147    0.4709785014636042    0.45313664727638037    0.4709785166672615    0.4843369515798191    
  0.4171703919301952    0.3029435991559895    0.2520271657914232    0.5163097858094838    0.5236688755166644    
  0.5141231531166942    0.45863591396238684    0.39340783233541765    0.3662540031627461    0.39340782905627164    
  0.45863592850885904    0.5141231717262109    0.5236689020049444    0.5163097858094838    0.523668947736494    
  0.5236521105166866    0.5209423154039103    0.4812237002302404    0.4139834293902021    0.36590563353548594    
  0.36590761783961534    0.4139791537537768    0.48122616053087347    0.5209357651158733    0.523668947736494    
  0.5141230957301117    0.5209422658948965    0.5141361726475812    0.48122001393405134    0.4210436164339542    
  0.36535691900077805    0.34367482446744174    0.3653601824690926    0.421042775405183    0.48122619520202253    
  0.5141230957301117    0.45863588538475775    0.48122370898190314    0.4812200826723443    0.45863031245363256    
  0.413983307563589    0.36536006625854134    0.3354437496339358    0.33543913441922346    0.3653602487272352    
  0.41397921678089583    0.45863588538475775    0.39340783584152356    0.41398340067313427    0.4210436378197957    
  0.4139832958807775    0.3934105863817659    0.3659061443767671    0.3436718311981013    0.33544375898094786    
  0.3436748540312696    0.36590761877497263    0.39340783584152356    0.3662539701039015    0.36590560558352875    
  0.3653569245700812    0.36536007923578284    0.36590614202983224    0.366252036015382    0.3659061250399598    
  0.3653600799669782    0.36535689604302146    0.36590561137380806    0.3662539701039015    0.39340782901165827    
  0.36590761617295936    0.3436748479714915    0.3354437449612602    0.34367184059596356    0.3659061603408187    
  0.393410624900957    0.413983261435278    0.42104363734618244    0.4139834048237044    0.39340782901165827    
  0.4586358794011215    0.41397920437374075    0.3653602456585795    0.33543913079613713    0.33544375852895497    
  0.36536004578343007    0.41398330323868543    0.4586303314988    0.48122001418563065    0.4812237189398185    
  0.4586358794011215    0.5141231285024097    0.48122615041971684    0.421042775481516    0.36536020267440383    
  0.343674829703624    0.36535690879952226    0.42104360876563185    0.4812200263737153    0.5141361759127702    
  0.5209423055150849    0.5141231285024097    0.5236688849205672    0.5209357485858238    0.4812261712622274    
  0.4139791830060239    0.36590759873531387    0.3659056306164838    0.4139834270977277    0.4812237184658764    
  0.5209423302690349    0.5236520740287964    0.5236688849205672    0.5163097858094838    0.5236688755166644    
  0.5141231531166942    0.45863591396238684    0.39340783233541765    0.3662540031627461    0.39340782905627164    
  0.45863592850885904    0.5141231717262109    0.5236689020049444    0.5163097858094838    0.684624060289141    
  0.6452128780574063    0.5411046443688712    0.42086648684872635    0.33544004997964066    0.30582969880305105    
  0.33544006120296305    0.4208664930329109    0.5411046402922176    0.6452129205216753    0.684624060289141    
  0.6452129724661329    0.6452227243095153    0.5730232400442412    0.4608416218670161    0.36071518726103596    
  0.30592709701949367    0.3059235602317738    0.36072007670534556    0.46084090446855813    0.5730235721692494    
  0.6452129724661329    0.5411045995532328    0.5730232343074347    0.5410973814178868    0.4608398470581418    
  0.37078272827667796    0.3062950682098656    0.2836320593423457    0.30629463174195326    0.370777590169942    
  0.46084089922849497    0.5411045995532328    0.42086644347663804    0.4608415675764435    0.4608398949536435    
  0.4208735002367982    0.36071739251717855    0.3062918757177808    0.2756186973387675    0.27561994719336314    
  0.3062946854970153    0.3607201200601679    0.42086644347663804    0.3354400723633878    0.36071518574185174    
  0.37078274894197333    0.3607173976058275    0.3354356544500369    0.3059252121439255    0.2836354250498316    
  0.2756186962573497    0.283632075101078    0.30592355977532804    0.3354400723633878    0.3058296461428794    
  0.30592708370089555    0.30629505594323225    0.3062918805779096    0.3059252083825465    0.30583382961598066    
  0.305925190427987    0.3062918851043871    0.3062950679373185    0.3059270906718193    0.3058296461428794    
  0.3354400792603653    0.3059235556516388    0.2836320647855531    0.27561869767488534    0.28363543507783123    
  0.30592523912433883    0.3354356865494385    0.36071736513175395    0.37078275157401386    0.3607151805955388    
  0.3354400792603653    0.42086645846552406    0.3607201472081276    0.30629468371447266    0.27561995209631723    
  0.27561869911481224    0.30629187529435953    0.36071738255700336    0.42087350313200633    0.4608398842983946    
  0.46084164076896567    0.42086645846552406    0.5411045991354918    0.4608408352910805    0.3707775933871035    
  0.3062946384307529    0.28363206220525167    0.30629506434407594    0.37078271000491986    0.46083987047239083    
  0.5410973831991785    0.5730232448992808    0.5411045991354918    0.6452129381211205    0.5730235422644566    
  0.46084088766222997    0.3607200938059924    0.3059235574264905    0.3059270935705908    0.3607151888210177    
  0.4608415565610732    0.5730232611795711    0.6452227284903266    0.6452129381211205    0.684624060289141    
  0.6452128780574063    0.5411046443688712    0.42086648684872635    0.33544004997964066    0.30582969880305105    
  0.33544006120296305    0.4208664930329109    0.5411046402922176    0.6452129205216753    0.684624060289141    
  0.7230043885727784    0.6694513711546409    0.5393371377909557    0.4037589801501351    0.3147041217148442    
  0.28506206654488436    0.31470413591623697    0.40375897966823054    0.5393371357018403    0.6694513859869401    
  0.7230043885727784    0.669451388983496    0.6694549227190707    0.5778415250947786    0.4476050796605982    
  0.34062922328959677    0.2850793244734513    0.2850798086979351    0.3406295246574287    0.4476153233238234    
  0.5778295529503263    0.669451388983496    0.539337111220162    0.5778414882065169    0.5393225873427383    
  0.44761693135935177    0.35122322068669987    0.2853763658655169    0.2627586517142934    0.2853754963193571    
  0.35121509985910976    0.44761530437375063    0.539337111220162    0.4037589938661194    0.4476050658194651    
  0.44761697356639    0.40375941883496674    0.34062809883903766    0.28536876135046574    0.2547215165297191    
  0.2547217847124153    0.2853755512184411    0.34062957504154096    0.4037589938661194    0.31470412146346455    
  0.3406292401676625    0.3512232109312475    0.34062807760915326    0.3147052069306948    0.2850804133995687    
  0.26276480216042747    0.25472152599629666    0.2627586616104121    0.2850798297949969    0.31470412146346455    
  0.2850620451024799    0.28507933919948336    0.2853763630873841    0.28536876612659573    0.28508040665380696    
  0.28505994435078785    0.28508039429961296    0.28536876614131207    0.28537637938050914    0.28507934195678813    
  0.2850620451024799    0.3147041304510898    0.285079808804385    0.26275866064883496    0.25472151898599454    
  0.26276480493310056    0.28508043675947686    0.3147052262800784    0.34062805386443007    0.3512232144212367    
  0.34062922847852045    0.3147041304510898    0.40375895188405203    0.3406295664507361    0.28537554168273116    
  0.2547217691873776    0.2547215230511698    0.28536875141598317    0.3406280916670871    0.40375941827841955    
  0.4476169581295307    0.44760509389829534    0.40375895188405203    0.539337101488453    0.4476153090257974    
  0.35121508965854925    0.28537552702789726    0.26275865449538943    0.2853763655840854    0.3512231781485502    
  0.44761693645413375    0.539322609085755    0.5778415276269638    0.539337101488453    0.6694513708785454    
  0.5778295719292982    0.44761532864959075    0.3406295592144884    0.2850798024806932    0.28507933288017956    
  0.3406292229607027    0.44760505479640655    0.5778415403635785    0.6694548816046958    0.6694513708785454    
  0.7230043885727784    0.6694513711546409    0.5393371377909557    0.4037589801501351    0.3147041217148442    
  0.28506206654488436    0.31470413591623697    0.40375897966823054    0.5393371357018403    0.6694513859869401    
  0.7230043885727784    0.684624058281687    0.6452128907766863    0.5411046416733274    0.42086648929052356    
  0.33544004059020543    0.30582970492178607    0.3354400673335274    0.4208664972260502    0.5411046407934665    
  0.6452129344666401    0.684624058281687    0.6452129697101949    0.6452227232668949    0.5730232580127373    
  0.4608415953766995    0.360715181694611    0.3059270934063519    0.305923554275489    0.3607200827643578    
  0.4608408859526279    0.5730235665084159    0.6452129697101949    0.5411045978689042    0.5730232235274528    
  0.5410973832526026    0.46083986073117367    0.3707827273421938    0.30629506452219063    0.2836320633647758    
  0.3062946305516884    0.37077757304945397    0.4608408952422653    0.5411045978689042    0.42086646833288904    
  0.46084159538765734    0.4608398862115704    0.4208734915766832    0.3607174034222096    0.3062918762137182    
  0.27561870088665286    0.275619955240029    0.30629467898878177    0.36072011523723263    0.42086646833288904    
  0.3354400519196819    0.36071518812175424    0.37078274897338487    0.3607173896116766    0.3354356438049633    
  0.30592520773419807    0.2836354248684753    0.27561869279412526    0.28363207142346364    0.30592355864321735    
  0.3354400519196819    0.30582966674281375    0.30592708251471945    0.306295046430411    0.3062918670418003    
  0.30592520439248344    0.30583384143877307    0.30592517362081945    0.3062918739517265    0.3062950605276404    
  0.3059270831442498    0.30582966674281375    0.3354400817935565    0.30592356253240555    0.28363206465884994    
  0.27561868851629684    0.283635443583987    0.30592523104132646    0.3354356718142132    0.360717367757881    
  0.3707827471255313    0.36071516255098723    0.3354400817935565    0.42086645190426175    0.3607201439867075    
  0.30629469454027336    0.2756199534691647    0.2756186952062485    0.30629187957071485    0.3607173707441741    
  0.42087350915289573    0.4608398810595725    0.4608416296627629    0.42086645190426175    0.5411045957243429    
  0.4608408354292902    0.37077758621101903    0.3062946531936593    0.2836320615776579    0.30629505392303163    
  0.3707827094163411    0.4608398405408215    0.541097388049832    0.5730232626195222    0.5411045957243429    
  0.6452129409934638    0.5730235643518655    0.46084088477002144    0.3607201051324335    0.30592355345073674    
  0.3059270891759211    0.3607151945675024    0.46084157863228037    0.5730232634407181    0.6452227133864126    
  0.6452129409934638    0.684624058281687    0.6452128907766863    0.5411046416733274    0.42086648929052356    
  0.33544004059020543    0.30582970492178607    0.3354400673335274    0.4208664972260502    0.5411046407934665    
  0.6452129344666401    0.684624058281687    0.5163097764234315    0.523668872227046    0.5141231727308961    
  0.4586359336406566    0.39340782818893405    0.36625400575839256    0.39340783263487933    0.4586358896159255    
  0.5141231853667197    0.523668890478548    0.5163097764234315    0.5236689324693049    0.5236520899497388    
  0.5209422939637633    0.48122371278064063    0.413983421160311    0.36590561773740604    0.36590761758411905    
  0.4139791855740009    0.4812261570058707    0.5209357579673883    0.5236689324693049    0.5141230879812414    
  0.520942280599822    0.5141362113689182    0.48122002697445027    0.42104360820294423    0.36535691121011327    
  0.34367482914319997    0.365360201185759    0.42104278867995565    0.48122619160046604    0.5141230879812414    
  0.4586358658523907    0.4812236963944372    0.4812200823624468    0.4586303272267864    0.41398333088678607    
  0.365360078319851    0.33544374374791025    0.33543914545297887    0.3653602511870946    0.4139792205289066    
  0.4586358658523907    0.3934078287094856    0.41398341310945297    0.4210436438446395    0.4139832957455237    
  0.39341058999087297    0.36590614721471704    0.34367183206238416    0.33544375718899605    0.34367485534197323    
  0.3659076198482982    0.3934078287094856    0.3662539707796649    0.3659056191075403    0.36535691472828935    
  0.3653600759750889    0.3659061382442034    0.366252026554202    0.3659061056101237    0.36536007894209344    
  0.3653568925247132    0.3659056265882584    0.3662539707796649    0.3934078437518755    0.3659076246467566    
  0.34367483526027776    0.33544373914569103    0.3436718399951152    0.36590615628544415    0.39341060451104    
  0.4139832857646434    0.42104365538339106    0.4139833907715066    0.3934078437518755    0.4586358675081033    
  0.41397921651884767    0.365360244030469    0.3354391272887428    0.3354437595389745    0.3653600494902774    
  0.41398331502564745    0.4586303492337387    0.48122005593376843    0.48122374343732177    0.4586358675081033    
  0.5141231399646159    0.4812261269506577    0.4210427770870449    0.36536020171218514    0.343674832763124    
  0.3653569162521386    0.42104360899512533    0.48122002807482966    0.5141361729045515    0.5209422901727953    
  0.5141231399646159    0.5236689016226074    0.5209357638577169    0.48122618908901393    0.41397917617592567    
  0.365907598276965    0.36590563058542047    0.41398340282568846    0.481223698045243    0.5209423253747462    
  0.5236520709381077    0.5236689016226074    0.5163097764234315    0.523668872227046    0.5141231727308961    
  0.4586359336406566    0.39340782818893405    0.36625400575839256    0.39340783263487933    0.4586358896159255    
  0.5141231853667197    0.523668890478548    0.5163097764234315    0.2520271817681963    0.3029435835290335    
  0.4171703586962382    0.48433698283719934    0.4709785034613136    0.45313663882891114    0.47097849606450837    
  0.4843369802061591    0.4171703866612314    0.30294359881148414    0.2520271817681963    0.30294363140254726    
  0.30290442694682546    0.3859598974000733    0.47027649908412456    0.4783509271216156    0.45105955638286166    
  0.4510739471785206    0.47834051523574883    0.47026068412991145    0.3859659735469156    0.30294363140254726    
  0.4171703168469969    0.38595984776612435    0.4172253328330106    0.47025535954922876    0.4781224721007126    
  0.44741508337157637    0.42976329063715585    0.44740882466999604    0.4781507597576583    0.4702607147954477    
  0.4171703168469969    0.4843369427535838    0.4702764945551407    0.47025541619612227    0.48430569795141687    
  0.4783425019710026    0.44743799325183975    0.42079247536076037    0.4208044594587505    0.44740889185203536    
  0.47834057428453114    0.4843369427535838    0.4709785069192765    0.4783508790936325    0.47812247820852694    
  0.4783424889661528    0.47101499276194847    0.45106563731635857    0.4297440147864371    0.42079247814808396    
  0.4297633257331559    0.45107394241271676    0.4709785069192765    0.45313660375364895    0.45105951097582303    
  0.4474150872604918    0.4474380097522091    0.45106561881436336    0.4531022423662866    0.45106560344543706    
  0.4474380221707405    0.44741505812960447    0.45105953058130216    0.45313660375364895    0.47097849877141085    
  0.4510739505786234    0.42976332574680626    0.4207924637947978    0.42974403239582953    0.45106565193447723    
  0.4710150362085301    0.4783424546494243    0.47812249696423853    0.47835088506524254    0.47097849877141085    
  0.48433694011810685    0.4783405650290513    0.44740889328305383    0.42080444721738186    0.4207924861740622    
  0.4474379919500295    0.47834250027133873    0.4843057076696137    0.4702553558628894    0.47027649545086375    
  0.48433694011810685    0.41717034913291545    0.47026068031214086    0.4781507565017885    0.4474088445868137    
  0.42976330813081454    0.44741506735101044    0.47812246063706104    0.47025536565088416    0.4172253225381775    
  0.3859598820553135    0.41717034913291545    0.3029435838953394    0.385965963624609    0.47026069882537064    
  0.47834054034909007    0.4510739296025724    0.4510595604085196    0.4783509177920934    0.4702765036947269    
  0.3859598985520695    0.30290439880969605    0.3029435838953394    0.2520271817681963    0.3029435835290335    
  0.4171703586962382    0.48433698283719934    0.4709785034613136    0.45313663882891114    0.47097849606450837    
  0.4843369802061591    0.4171703866612314    0.30294359881148414    0.2520271817681963    0.08927281525970875    
  0.13911247472513283    0.3034605415785859    0.48239724131186    0.5361474621661644    0.5323305276973999    
  0.5361474684279637    0.4823972445014021    0.30346053219187663    0.13911248172741034    0.08927281525970875    
  0.13911249407234905    0.13911214862558446    0.24980192925468647    0.4291955581364039    0.5258360414203362    
  0.528395546641153    0.5284054682420571    0.5258345580919358    0.4291474789062987    0.24984085396201539    
  0.13911249407234905    0.3034605127370041    0.2498019200980157    0.30350089649529205    0.42916642693860513    
  0.5168195016442063    0.5213530727203477    0.5097788755972326    0.5213393802075431    0.5168835418026287    
  0.42914746799433334    0.3034605127370041    0.4823971950121848    0.42919550891695957    0.4291664582460503    
  0.4823732549393806    0.5258221889996259    0.5213998482691571    0.500118839135639    0.5001371736897062    
  0.5213394530244306    0.5258345905867372    0.4823971950121848    0.5361474798000998    0.525836040671376    
  0.5168195171000398    0.5258221811389818    0.5361839896005268    0.5284057188298665    0.5097310329311202    
  0.5001188171065035    0.5097788842326226    0.5284054521829372    0.5361474798000998    0.5323304497273224    
  0.5283955070293416    0.5213530548783214    0.521399851130011    0.5284057155446104    0.5322865975255155    
  0.528405699151789    0.5213998594790371    0.5213530752113535    0.5283955267896576    0.5323304497273224    
  0.5361474840100815    0.5284054354735614    0.5097788754759912    0.5001188298012256    0.5097310355101244    
  0.5284057736126799    0.5361840297608107    0.525822136656541    0.5168195127568167    0.5258360168101326    
  0.5361474840100815    0.4823972113058478    0.5258346367677873    0.5213394394630078    0.5001371709761712    
  0.5001188297998499    0.5213998569431495    0.5258221808836909    0.48237325438613377    0.4291664508337993    
  0.4291955835874417    0.4823972113058478    0.3034605051270972    0.4291474170394834    0.516883558637613    
  0.5213393877006453    0.5097788745558319    0.5213530837230032    0.5168194871996126    0.4291664386475706    
  0.3035009066934327    0.2498019407329303    0.3034605051270972    0.1391124811687032    0.24984083670527532    
  0.4291474566929569    0.5258345760355444    0.528405459811973    0.5283955540592311    0.5258360513816202    
  0.42919551143779305    0.2498019390736326    0.13911214992771778    0.1391124811687032    0.08927281525970875    
  0.13911247472513283    0.3034605415785859    0.48239724131186    0.5361474621661644    0.5323305276973999    
  0.5361474684279637    0.4823972445014021    0.30346053219187663    0.13911248172741034    0.08927281525970875    
  0.05045260362110258    0.09215711258441933    0.25743139960641975    0.47560211706883576    0.5609535532784563    
  0.5642145251990077    0.5609535558731603    0.47560211649516715    0.25743139805922066    0.09215711745221512    
  0.05045260362110258    0.0921571122626329    0.09217821242486184    0.19970591197505574    0.4065034424373171    
  0.5421451258842873    0.5596665210389089    0.5596609640866566    0.5421598219369204    0.40643763205356936    
  0.19975776624967867    0.0921571122626329    0.2574313833600425    0.19970588626237434    0.2574482989499752    
  0.4064656816426599    0.5291756827638855    0.5513573594064124    0.5428517898455835    0.5513428035510286    
  0.5292472451068688    0.4064376066833253    0.2574313833600425    0.47560212693490883    0.4065034191761463    
  0.4064657144730197    0.4756088256355113    0.5421367233251873    0.5514122597024622    0.532982492444457    
  0.5330024937236285    0.5513428736656237    0.542159861853407    0.47560212693490883    0.5609535282433494    
  0.5421451388109026    0.5291756587396119    0.542136696183304    0.5609595471976832    0.5596707327492547    
  0.5427953129644884    0.5329825008663294    0.5428517912571057    0.5596609503108535    0.5609535282433494    
  0.5642144915632048    0.5596665316479296    0.5513573423467301    0.5514122571150677    0.5596707297895629    
  0.564198197068027    0.5596707138719786    0.5514122549352942    0.5513573702519466    0.55966654230925    
  0.5642144915632048    0.5609535448106171    0.559660931286656    0.5428517935161341    0.5329824979721692    
  0.5427953166855992    0.5596707618334904    0.5609595831398425    0.5421366553991126    0.5291756549149386    
  0.542145115618368    0.5609535448106171    0.4756020720564287    0.5421598621694682    0.5513428741782188    
  0.5330024583122372    0.5329824980101573    0.551412247906952    0.542136716388171    0.47560880519409204    
  0.40646570229033313    0.4065034491897627    0.4756020720564287    0.2574313725996254    0.4064376079708762    
  0.529247244950308    0.5513428425204799    0.5428517893955804    0.5513573686914568    0.5291756282122014    
  0.40646567215744683    0.25744832229894804    0.19970592028916714    0.2574313725996254    0.09215709279103458    
  0.19975776272085824    0.40643763517072046    0.5421598579120152    0.5596609610739872    0.5596665442619203    
  0.5421451259010375    0.40650341981948224    0.19970591697609716    0.09217820301670974    0.09215709279103458    
  0.05045260362110258    0.09215711258441933    0.25743139960641975    0.47560211706883576    0.5609535532784563    
  0.5642145251990077    0.5609535558731603    0.47560211649516715    0.25743139805922066    0.09215711745221512    
  0.05045260362110258    
  END_DATAGRID_3D    
  END_BLOCK_DATAGRID_3D    