#     DFTpy    
  CRYSTAL 
    
  PRIMVEC    
  2.535931034482759    0.0    0.0    
  0.0    2.535931034482759    0.0    
  0.0    0.0    2.535931034482759    
  PRIMCOORD    
  2    1    
  Si    0.0    0.0    0.0    
  Si    1.2679655172413795    1.2679655172413795    1.2679655172413795    
  BEGIN_BLOCK_DATAGRID_3D    
  3d_datagrid_density    
  BEGIN_DATAGRID_3D#0    
  11    11    11    
  0.0    0.0    0.0    
  2.535931034482759    0.0    0.0    
  0.0    2.535931034482759    0.0    
  0.0    0.0    2.535931034482759    
  0.054503105469219056    0.11259250533564424    0.3263535087817384    0.5040049298068751    0.48834880185077534    
  0.45578261774030115    0.48834880590562346    0.5040049552936038    0.3263534282789466    0.11259250894653636    
  0.054503105469219056    0.11259253742755819    0.18485659884685407    0.3925972330602976    0.5234687246807095    
  0.4917845087764818    0.4594269337591898    0.49178453239653835    0.5234687524900923    0.3925972860278801    
  0.18485658653981119    0.11259253742755819    0.32635347817748384    0.3925972564812978    0.5156102960578162    
  0.5430853644018564    0.49230431391868146    0.4641568874059441    0.4923044396222549    0.5430854360318172    
  0.5156101439330466    0.39259725786094585    0.32635347817748384    0.504004989086831    0.5234686527812998    
  0.5430853373548233    0.5209164211793684    0.4817791091722869    0.4641551615227555    0.4817791561378428    
  0.5209164659376312    0.5430853232306504    0.5234687598730752    0.504004989086831    0.48834887035704977    
  0.49178455063545873    0.492304391041719    0.48177906251933583    0.4668036780462513    0.45942849848099576    
  0.4668036431423136    0.4817790678461132    0.4923043089864807    0.49178454707892255    0.48834887035704977    
  0.455782496870718    0.45942683201575446    0.4641568847674033    0.46415520662224813    0.45942848262656033    
  0.45578100716612496    0.45942844543094963    0.46415527072239443    0.46415676836345443    0.4594269428297223    
  0.455782496870718    0.48834886763622687    0.4917845885945183    0.4923043638785975    0.4817791557763897    
  0.46680364433143723    0.45942852211399343    0.46680356969748776    0.4817790961828801    0.4923043571841273    
  0.49178452953509455    0.48834886763622687    0.5040049930154772    0.5234687253594615    0.5430853430281078    
  0.520916338636804    0.4817790809419389    0.4641552604671384    0.48177909311996747    0.5209164673768234    
  0.5430852718324665    0.5234687607934254    0.5040049930154772    0.3263535569166626    0.3925971663763356    
  0.515610224483217    0.5430853884121705    0.4923043641259664    0.46415690079552163    0.49230438435126134    
  0.5430852821555276    0.5156102060211633    0.3925972567806727    0.3263535569166626    0.11259253622248129    
  0.18485658865777496    0.39259726565156733    0.5234687488341764    0.4917845204944192    0.4594268789100596    
  0.4917844644023621    0.5234686868445495    0.3925971855919856    0.18485658276757647    0.11259253622248129    
  0.054503105469219056    0.11259250533564424    0.3263535087817384    0.5040049298068751    0.48834880185077534    
  0.45578261774030115    0.48834880590562346    0.5040049552936038    0.3263534282789466    0.11259250894653636    
  0.054503105469219056    0.11259252524581938    0.18485657992330304    0.3925972611424294    0.5234687146673025    
  0.49178458737833014    0.4594269064210388    0.49178453088362883    0.5234688100596787    0.39259725831036113    
  0.18485660799585424    0.11259252524581938    0.18485660164844347    0.26263801432351597    0.4497305451273982    
  0.539783393435127    0.49798073299082374    0.4668053300783256    0.49798062924613007    0.5397833859814344    
  0.4497305028402879    0.26263800833097245    0.18485660164844347    0.3925972188021181    0.44973052004326625    
  0.5468551584648327    0.5575167639294224    0.5074103157877794    0.4817775815360152    0.5074103218084841    
  0.5575168414259796    0.5468550346511923    0.4497304692514531    0.3925972188021181    0.5234688017971502    
  0.5397833334055915    0.5575167486336333    0.5404668791276322    0.5074087197454638    0.4923060783599559    
  0.5074087745080444    0.5404669103007427    0.5575167080068008    0.5397834112910022    0.5234688017971502    
  0.49178463953676693    0.4979807449053979    0.5074104180951725    0.5074087337530937    0.4979824352828403    
  0.491782923094789    0.4979823490732836    0.5074086667821971    0.5074103129130093    0.49798070721864357    
  0.49178463953676693    0.4594269096706234    0.46680527937299676    0.4817775651240924    0.4923059693875484    
  0.4917828466618496    0.4883506070486265    0.4917828044252384    0.49230611269062513    0.4817774333224607    
  0.4668053328872475    0.4594269096706234    0.4917846370287879    0.49798074409775045    0.5074104042666493    
  0.5074087887113257    0.4979824085650333    0.49178291464189283    0.49798232788556634    0.5074087188689251    
  0.5074103501359626    0.49798066665643664    0.4917846370287879    0.523468725175274    0.5397833925713615    
  0.5575167506883674    0.5404668221217255    0.5074087160854536    0.49230604178716364    0.507408743138365    
  0.5404669684393186    0.5575167521902363    0.5397833908569248    0.523468725175274    0.3925973281991998    
  0.4497304226326315    0.54685513621364    0.5575167616626007    0.5074104139440321    0.4817775216535991    
  0.5074104179266851    0.5575167711520462    0.5468551533785401    0.4497304707547251    0.3925973281991998    
  0.18485661259650218    0.2626380395744946    0.449730591111924    0.5397834270012587    0.4979806643401865    
  0.4668053249623691    0.4979807635436107    0.5397834624981259    0.44973043757283115    0.262638022164247    
  0.18485661259650218    0.11259252524581938    0.18485657992330304    0.3925972611424294    0.5234687146673025    
  0.49178458737833014    0.4594269064210388    0.49178453088362883    0.5234688100596787    0.39259725831036113    
  0.18485660799585424    0.11259252524581938    0.32635349449088696    0.39259726340179824    0.5156102681783428    
  0.5430853601416512    0.4923043727741064    0.4641568684396213    0.49230426785902115    0.5430853935359454    
  0.515610280520461    0.3925971889477252    0.32635349449088696    0.39259724301812116    0.44973046872396055    
  0.5468551558161184    0.5575167765746987    0.5074103709354957    0.48177752557365605    0.5074102770419415    
  0.5575167744752889    0.5468551835439807    0.44973039468165704    0.39259724301812116    0.515610238781562    
  0.5468551574570112    0.5919265988135272    0.5821621229080284    0.5404651317832049    0.5209181322605351    
  0.5404652278719508    0.582162205632573    0.5919265819503454    0.5468551425858015    0.515610238781562    
  0.5430854191681583    0.5575167603915869    0.582162012873768    0.5821603985164506    0.5575184567427155    
  0.5430837044980975    0.5575185304083985    0.5821603834089022    0.5821620643262421    0.5575168420031333    
  0.5430854191681583    0.49230445540955525    0.5074103955910869    0.5404652125991529    0.5575184596370247    
  0.5397817007327365    0.5234705358436177    0.539781617775449    0.5575185393220801    0.5404652034328387    
  0.5074103896301272    0.49230445540955525    0.4641567907684461    0.4817774491648465    0.5209180820605229    
  0.5430836959999514    0.52347037689072    0.5040033243809827    0.5234703986462933    0.5430837631474386    
  0.520918075273508    0.4817775005122188    0.4641567907684461    0.4923044013100792    0.5074104073672325    
  0.5404651235243254    0.5575185744078841    0.5397816351864886    0.523470495300921    0.5397816095435469    
  0.5575185266993726    0.5404651385546332    0.5074103692383898    0.4923044013100792    0.5430853731191223    
  0.5575167820184604    0.5821620382753875    0.5821603932036444    0.5575184718505574    0.543083750655281    
  0.5575184834960192    0.5821604367242686    0.5821620931270017    0.5575168039412549    0.5430853731191223    
  0.5156103038530429    0.5468550980563757    0.591926606316099    0.5821621035205096    0.5404651328419017    
  0.5209181252596382    0.5404651388417914    0.5821620550693523    0.5919265221443952    0.5468551759136142    
  0.5156103038530429    0.39259730604917664    0.4497305337385425    0.5468551296871228    0.557516817615736    
  0.5074103079513181    0.48177755123039806    0.507410306494283    0.5575168768840554    0.5468551687927656    
  0.4497303996603104    0.39259730604917664    0.32635349449088696    0.39259726340179824    0.5156102681783428    
  0.5430853601416512    0.4923043727741064    0.4641568684396213    0.49230426785902115    0.5430853935359454    
  0.515610280520461    0.3925971889477252    0.32635349449088696    0.5040049634229024    0.5234687108145303    
  0.5430854278331418    0.5209163929380973    0.4817791122452587    0.4641552418265017    0.48177904489804163    
  0.5209163935101537    0.5430854089075012    0.5234686611546644    0.5040049634229024    0.5234687677428175    
  0.5397834547618225    0.5575167830997595    0.5404668639521604    0.5074087329967889    0.4923060813442688    
  0.5074085908703486    0.540466842258961    0.5575167482564483    0.5397833945660001    0.5234687677428175    
  0.5430853662151045    0.5575167517532101    0.5821620638289619    0.5821603610242008    0.5575185008605231    
  0.5430836665623611    0.5575185296318601    0.5821604490644793    0.5821620856346051    0.5575167633656302    
  0.5430853662151045    0.5209164676433052    0.540466861837741    0.5821603563862975    0.591928404410713    
  0.546853423491464    0.5156119469596058    0.5468535000955972    0.5919284203850059    0.5821603527519057    
  0.5404669693461914    0.5209164676433052    0.48177923389719224    0.5074087314500803    0.5575184745571581    
  0.5468534343022174    0.4497320369251039    0.39259575283274145    0.44973203093957786    0.5468534273729918    
  0.5575185247340892    0.5074086514650906    0.48177923389719224    0.4641551976045583    0.49230593222910335    
  0.5430836951691976    0.5156119979931179    0.3925956340646162    0.3263549628047388    0.3925956774149554    
  0.5156120405953212    0.5430836093600685    0.49230602226318737    0.4641551976045583    0.48177921338373086    
  0.5074087358901005    0.5575184811610844    0.5468535476445726    0.4497320474876714    0.39259573791508806    
  0.44973200445625705    0.5468534943550715    0.5575184202869292    0.5074087142938928    0.48177921338373086    
  0.5209163891244325    0.5404668947153741    0.5821603137339328    0.591928378678638    0.5468533298771067    
  0.5156119964650836    0.546853453304666    0.5919284443244351    0.5821602790236003    0.5404669408063462    
  0.5209163891244325    0.5430854355146366    0.557516693114942    0.5821621212065653    0.5821603989589075    
  0.5575184839661557    0.5430837143120204    0.5575184857597951    0.5821603439818125    0.5821621006965884    
  0.5575167768414186    0.5430854355146366    0.5234687906265896    0.5397833818942389    0.5575167186155585    
  0.5404669407956413    0.5074086633405948    0.4923060712351311    0.5074086707023197    0.5404670110367182    
  0.5575167981664562    0.5397833860848839    0.5234687906265896    0.5040049634229024    0.5234687108145303    
  0.5430854278331418    0.5209163929380973    0.4817791122452587    0.4641552418265017    0.48177904489804163    
  0.5209163935101537    0.5430854089075012    0.5234686611546644    0.5040049634229024    0.4883488583606481    
  0.49178455825846323    0.4923043649101687    0.48177914884170986    0.46680366312591814    0.459428553265959    
  0.4668036481522432    0.4817791646532763    0.49230434107773813    0.4917845924112131    0.4883488583606481    
  0.49178467995262615    0.49798073604938553    0.5074103490243093    0.507408782757394    0.49798231374753715    
  0.49178296848594727    0.49798234385372026    0.5074087022976642    0.5074103715956837    0.4979807449373543    
  0.49178467995262615    0.4923043496443409    0.5074103522801806    0.5404651588353167    0.5575184394031836    
  0.539781667945221    0.523470491946179    0.5397816785472802    0.5575185387034743    0.5404650841590125    
  0.5074103157334964    0.4923043496443409    0.4817791869353589    0.5074086153321589    0.5575184696433579    
  0.5468534174161057    0.4497320944138146    0.39259577790336997    0.4497320858087077    0.546853475940556    
  0.5575184499180432    0.5074087521143166    0.4817791869353589    0.4668037267875275    0.49798240228231905    
  0.5397816615968518    0.44973212013323477    0.2626367000350976    0.1848577541580682    0.2626366514648928    
  0.449732046875953    0.5397816770522929    0.4979824253402419    0.4668037267875275    0.4594285603184978    
  0.49178290004183506    0.5234705015283261    0.3925956718631805    0.18485771514694485    0.1125915745016329    
  0.18485772928121133    0.3925958415455991    0.5234703240572056    0.4917829277308804    0.4594285603184978    
  0.46680372334488457    0.49798245190106005    0.5397816664517917    0.44973212099929366    0.26263672402786153    
  0.1848577463338696    0.26263663730265424    0.4497320631076072    0.5397816755065098    0.49798236704642895    
  0.46680372334488457    0.48177908901277733    0.5074087242219789    0.5575185027890942    0.5468534146576688    
  0.4497320984926864    0.39259575085501985    0.44973208671583437    0.5468535657309633    0.557518484182281    
  0.5074087069250042    0.48177908901277733    0.49230441583544476    0.5074103258165267    0.540465187954086    
  0.5575184933749727    0.5397817007989199    0.5234705061585888    0.5397817057551175    0.5575184661633241    
  0.5404651284200203    0.5074103646091194    0.49230441583544476    0.49178461489353376    0.4979807435594531    
  0.5074104652190258    0.5074087567253097    0.4979823253142846    0.4917829120647504    0.4979824204892692    
  0.5074087560189692    0.5074103374358212    0.49798073804697535    0.49178461489353376    0.4883488583606481    
  0.49178455825846323    0.4923043649101687    0.48177914884170986    0.46680366312591814    0.459428553265959    
  0.4668036481522432    0.4817791646532763    0.49230434107773813    0.4917845924112131    0.4883488583606481    
  0.4557825815718961    0.45942685969439395    0.46415683618151715    0.4641551975016742    0.45942847438644946    
  0.45578094425041743    0.45942848001750913    0.46415524252457135    0.4641567444683553    0.4594268629887538    
  0.4557825815718961    0.45942696814720213    0.46680532757734294    0.4817775002703906    0.4923060067517305    
  0.4917828553191684    0.4883505731674055    0.4917828666780477    0.49230604039991116    0.48177754914314447    
  0.46680527390929794    0.45942696814720213    0.46415680197333953    0.4817774915688111    0.5209181342034952    
  0.5430836371977905    0.5234703825027259    0.5040033109885247    0.5234704941583476    0.5430837449022851    
  0.5209179811131721    0.48177749365019285    0.46415680197333953    0.46415525545355385    0.49230592058660866    
  0.5430836270838032    0.5156119320391332    0.3925957318849744    0.3263549208586243    0.39259577690068787    
  0.5156119721651329    0.5430836127816279    0.49230603344563256    0.46415525545355385    0.45942856574803653    
  0.4917828955482348    0.5234704731077554    0.3925956792752536    0.18485776281188881    0.1125915436681083    
  0.18485774654308082    0.3925956900403096    0.5234703982093386    0.4917828939074079    0.45942856574803653    
  0.45578087283029056    0.4883504900768872    0.5040033363529405    0.326354926278428    0.11259152787241408    
  0.05450385208749353    0.11259152146816054    0.3263549884845552    0.5040032041713752    0.48835056861040277    
  0.45578087283029056    0.4594285375511468    0.49178291638121785    0.5234704525180486    0.39259575601995134    
  0.18485774857707793    0.1125915387353588    0.18485771371363321    0.39259571062426535    0.5234704489423234    
  0.4917828704483375    0.4594285375511468    0.4641552581808638    0.49230603161567627    0.5430836447826468    
  0.5156118419409569    0.3925956854784351    0.3263549713799853    0.3925957134606226    0.5156119716797516    
  0.543083559069276    0.4923060396402519    0.4641552581808638    0.4641569036469167    0.48177739242845424    
  0.5209180489149955    0.5430836987660523    0.5234704575593739    0.5040033052744879    0.523470466992211    
  0.5430835874207924    0.520918038113905    0.4817774779748057    0.4641569036469167    0.4594269342396455    
  0.46680527568909186    0.4817775158278956    0.4923060254748904    0.4917828607229773    0.4883505126096379    
  0.49178282449238186    0.49230597676813087    0.48177742139975793    0.4668052797901823    0.4594269342396455    
  0.4557825815718961    0.45942685969439395    0.46415683618151715    0.4641551975016742    0.45942847438644946    
  0.45578094425041743    0.45942848001750913    0.46415524252457135    0.4641567444683553    0.4594268629887538    
  0.4557825815718961    0.4883488636184341    0.49178453994163146    0.49230438705641405    0.481779106049788    
  0.46680369570682495    0.4594285289135292    0.46680362674779674    0.4817791797962902    0.49230439520189173    
  0.4917845931689909    0.4883488636184341    0.49178460478750685    0.4979807630346055    0.5074104199608462    
  0.5074087238100091    0.4979823823701202    0.4917829288997997    0.497982276551369    0.5074086893249588    
  0.5074104006844792    0.4979807367671467    0.49178460478750685    0.49230433185810246    0.5074103855691476    
  0.5404651760419479    0.5575184591468799    0.5397816270143392    0.523470521724165    0.5397816570497995    
  0.5575185313518263    0.5404650955152324    0.5074103545903684    0.49230433185810246    0.48177921444728666    
  0.5074086462931344    0.5575184799988916    0.5468534683475259    0.4497320693913484    0.3925958071366913    
  0.44973210046846496    0.5468534726219837    0.5575184248270103    0.5074087078781586    0.48177921444728666    
  0.4668037441307601    0.4979824048070561    0.5397817323650032    0.4497320780412126    0.26263671567507496    
  0.18485776717561614    0.2626366675929858    0.44973201259144496    0.5397816376785491    0.4979824031279474    
  0.4668037441307601    0.4594285409522672    0.4917829047957811    0.523470523807576    0.39259568240462606    
  0.18485772980513462    0.11259157578653044    0.18485771271585594    0.39259580702946606    0.5234703773309283    
  0.4917829313079932    0.4594285409522672    0.4668037483103121    0.49798241208026134    0.5397816993196838    
  0.44973211046232703    0.26263670687054325    0.18485774959211812    0.26263664742903026    0.4497320801042021    
  0.5397816562898486    0.4979823392598587    0.4668037483103121    0.48177914185450127    0.5074087180857038    
  0.557518486082095    0.5468534116224208    0.4497320729509597    0.3925957496446674    0.4497320956634082    
  0.5468535575905599    0.5575184831176078    0.5074087295085542    0.48177914185450127    0.49230442944042524    
  0.5074103254219532    0.5404651601937418    0.5575184799354271    0.5397817070888378    0.5234704663885246    
  0.5397817406774599    0.5575185072268358    0.5404651860150748    0.5074103729121381    0.49230442944042524    
  0.49178459398776936    0.4979807895216742    0.5074105045112614    0.5074087121528925    0.497982315563704    
  0.49178292668536544    0.4979824256656574    0.5074087648401373    0.5074103254350217    0.49798077524259526    
  0.49178459398776936    0.4883488636184341    0.49178453994163146    0.49230438705641405    0.481779106049788    
  0.46680369570682495    0.4594285289135292    0.46680362674779674    0.4817791797962902    0.49230439520189173    
  0.4917845931689909    0.4883488636184341    0.5040049506975484    0.5234687691288327    0.5430853971813743    
  0.5209164169026047    0.4817791327273266    0.4641552597810755    0.4817790002480179    0.5209164055701198    
  0.5430853890121651    0.5234686701157231    0.5040049506975484    0.5234687487063036    0.5397833984067932    
  0.557516779738051    0.5404668338766636    0.5074087104514098    0.4923060428873077    0.507408591670494    
  0.5404668274232539    0.5575168138252717    0.5397833255346508    0.5234687487063036    0.5430853815424019    
  0.5575167756322724    0.5821621187283769    0.5821604000569083    0.5575184430386187    0.543083730344425    
  0.5575185459418994    0.5821604520712679    0.5821620576891033    0.5575167441857848    0.5430853815424019    
  0.5209164539485017    0.5404668638552754    0.5821602640605424    0.5919283888263249    0.5468534002273319    
  0.5156119585300226    0.5468534875308717    0.5919283817224408    0.5821603072687598    0.5404669373542762    
  0.5209164539485017    0.48177922200620527    0.5074087089567488    0.5575185368862494    0.5468534014922485    
  0.44973207507422647    0.3925958074501882    0.4497320109505245    0.5468535007324982    0.5575184972257632    
  0.5074087319255832    0.48177922200620527    0.46415518988634447    0.49230597675360044    0.5430836669794082    
  0.5156119394023007    0.3925956603135838    0.326354958512425    0.39259568475940915    0.5156120073026964    
  0.5430836494268667    0.49230603147182334    0.46415518988634447    0.4817791730448161    0.5074087389345294    
  0.5575184391180398    0.5468535275203008    0.4497320291690282    0.3925957606017436    0.4497320120745963    
  0.5468534650211225    0.5575184378491983    0.5074086932698578    0.4817791730448161    0.5209164133215957    
  0.5404669060276377    0.5821603066474096    0.591928383217314    0.5468534434902932    0.5156119865587017    
  0.5468534315041436    0.591928442566191    0.5821603536317286    0.5404668903954853    0.5209164133215957    
  0.5430854345438797    0.5575167025233192    0.5821621165252229    0.5821603685990518    0.5575184356910207    
  0.5430837003181542    0.5575184545020324    0.5821603220119235    0.5821620381530285    0.5575167994108142    
  0.5430854345438797    0.5234687930385126    0.5397834641014232    0.557516761139218    0.5404669185712034    
  0.5074086285185727    0.49230607507423485    0.5074086468584464    0.5404669495588795    0.5575167976228852    
  0.5397833239144172    0.5234687930385126    0.5040049506975484    0.5234687691288327    0.5430853971813743    
  0.5209164169026047    0.4817791327273266    0.4641552597810755    0.4817790002480179    0.5209164055701198    
  0.5430853890121651    0.5234686701157231    0.5040049506975484    0.3263535130279124    0.3925972268740174    
  0.5156102971608103    0.5430853430205586    0.49230437798125776    0.4641568564082358    0.4923042944116532    
  0.5430853485570397    0.5156102827915394    0.3925971957716831    0.3263535130279124    0.3925972529785335    
  0.44973053779443734    0.5468551599009374    0.5575167853104543    0.5074104056442003    0.4817775705131077    
  0.5074102252559891    0.5575167760887457    0.5468551052181885    0.4497304763937391    0.3925972529785335    
  0.5156102667762706    0.5468551626676982    0.5919265819774508    0.5821620892157652    0.5404651868709363    
  0.5209180991176876    0.5404652049187011    0.5821621730095581    0.5919265920526796    0.5468551543205468    
  0.5156102667762706    0.5430854410131324    0.5575167716299075    0.5821620623075873    0.5821604417619434    
  0.5575184505840074    0.5430837062518376    0.5575185003968599    0.5821604294207793    0.5821620762247475    
  0.5575168892655443    0.5430854410131324    0.4923044812266013    0.5074103784539534    0.540465184151041    
  0.5575185011214552    0.5397816582383338    0.5234704616649747    0.5397816486798236    0.5575184930049693    
  0.5404652035283539    0.5074103330916343    0.4923044812266013    0.46415679413365324    0.4817774006141755    
  0.5209181226212062    0.5430837593424352    0.5234703419614329    0.5040033173621973    0.5234703866014694    
  0.5430838265579568    0.5209180411098454    0.481777502406828    0.46415679413365324    0.49230442879195224    
  0.507410407909715    0.5404651464102346    0.5575185917789398    0.5397816985456806    0.5234704745120374    
  0.5397816182748588    0.5575185397442834    0.5404651008104026    0.5074103603852742    0.49230442879195224    
  0.5430853499434299    0.5575168026074905    0.5821620484912192    0.5821603762687771    0.5575183900338849    
  0.5430837101457879    0.5575184662509884    0.5821604733656789    0.5821620248951443    0.5575168187763804    
  0.5430853499434299    0.5156102912251703    0.5468550694919171    0.5919266452942307    0.5821621328412566    
  0.5404651770132224    0.5209181445955827    0.5404651527072446    0.5821620682645104    0.5919265917976241    
  0.546855143827138    0.5156102912251703    0.3925973106993999    0.4497304671610132    0.5468550864244747    
  0.5575168707542353    0.5074103303076416    0.4817775587393709    0.5074103305035617    0.5575169302710836    
  0.5468551669819112    0.44973047816754425    0.3925973106993999    0.3263535130279124    0.3925972268740174    
  0.5156102971608103    0.5430853430205586    0.49230437798125776    0.4641568564082358    0.4923042944116532    
  0.5430853485570397    0.5156102827915394    0.3925971957716831    0.3263535130279124    0.1125925208624175    
  0.1848565994532047    0.3925972282546802    0.5234687732809677    0.49178455472686333    0.4594269477891531    
  0.49178453892426416    0.5234687863289232    0.3925972208584037    0.1848566023507041    0.1125925208624175    
  0.1848566374785126    0.262638000602324    0.44973046816952666    0.5397834608693775    0.49798068625957337    
  0.46680537270682687    0.49798069978172377    0.5397833714145835    0.4497304847834092    0.26263798984789194    
  0.1848566374785126    0.392597254793889    0.44973047310496356    0.5468551287875327    0.5575167502123679    
  0.5074103697650789    0.48177754027910674    0.5074103686995147    0.5575168255411961    0.5468550357944145    
  0.4497304364233012    0.392597254793889    0.5234687895298398    0.5397832866243003    0.5575167464513792    
  0.5404668452060188    0.5074087393427271    0.49230608586987185    0.5074087355521772    0.5404668948263752    
  0.5575167328449131    0.5397834397499873    0.5234687895298398    0.4917846343404676    0.4979807455462689    
  0.507410358585517    0.5074087842276052    0.49798240294826424    0.4917828978477683    0.4979823328924848    
  0.507408689000424    0.5074103692786679    0.4979807133603211    0.4917846343404676    0.459426918895719    
  0.46680528051735154    0.48177756395120536    0.492305963844971    0.49178284916870274    0.48835058990978925    
  0.4917828673172511    0.49230613060140677    0.48177736578689667    0.46680533185311945    0.459426918895719    
  0.4917846022479797    0.497980786008656    0.5074103587547855    0.5074087705832101    0.49798241432537216    
  0.4917828948971777    0.4979822846932066    0.5074087357718263    0.5074103520706946    0.4979806830926878    
  0.4917846022479797    0.5234686763439063    0.5397834063379272    0.5575167919184946    0.5404668449413044    
  0.5074087189699762    0.49230604247372445    0.5074087272378842    0.5404669736979667    0.5575167529383915    
  0.5397833724062036    0.5234686763439063    0.39259730255516895    0.44973045517851473    0.5468551564099596    
  0.5575167848990724    0.5074103887563406    0.4817775451952869    0.507410404889719    0.557516775336764    
  0.5468551174807591    0.44973045990801436    0.39259730255516895    0.18485663472498004    0.2626380141612412    
  0.44973055716204935    0.5397834637606328    0.4979806560392236    0.4668053381800469    0.4979807712636639    
  0.5397834327711798    0.4497304416961015    0.2626380158254154    0.18485663472498004    0.1125925208624175    
  0.1848565994532047    0.3925972282546802    0.5234687732809677    0.49178455472686333    0.4594269477891531    
  0.49178453892426416    0.5234687863289232    0.3925972208584037    0.1848566023507041    0.1125925208624175    
  0.054503105469219056    0.11259250533564424    0.3263535087817384    0.5040049298068751    0.48834880185077534    
  0.45578261774030115    0.48834880590562346    0.5040049552936038    0.3263534282789466    0.11259250894653636    
  0.054503105469219056    0.11259253742755819    0.18485659884685407    0.3925972330602976    0.5234687246807095    
  0.4917845087764818    0.4594269337591898    0.49178453239653835    0.5234687524900923    0.3925972860278801    
  0.18485658653981119    0.11259253742755819    0.32635347817748384    0.3925972564812978    0.5156102960578162    
  0.5430853644018564    0.49230431391868146    0.4641568874059441    0.4923044396222549    0.5430854360318172    
  0.5156101439330466    0.39259725786094585    0.32635347817748384    0.504004989086831    0.5234686527812998    
  0.5430853373548233    0.5209164211793684    0.4817791091722869    0.4641551615227555    0.4817791561378428    
  0.5209164659376312    0.5430853232306504    0.5234687598730752    0.504004989086831    0.48834887035704977    
  0.49178455063545873    0.492304391041719    0.48177906251933583    0.4668036780462513    0.45942849848099576    
  0.4668036431423136    0.4817790678461132    0.4923043089864807    0.49178454707892255    0.48834887035704977    
  0.455782496870718    0.45942683201575446    0.4641568847674033    0.46415520662224813    0.45942848262656033    
  0.45578100716612496    0.45942844543094963    0.46415527072239443    0.46415676836345443    0.4594269428297223    
  0.455782496870718    0.48834886763622687    0.4917845885945183    0.4923043638785975    0.4817791557763897    
  0.46680364433143723    0.45942852211399343    0.46680356969748776    0.4817790961828801    0.4923043571841273    
  0.49178452953509455    0.48834886763622687    0.5040049930154772    0.5234687253594615    0.5430853430281078    
  0.520916338636804    0.4817790809419389    0.4641552604671384    0.48177909311996747    0.5209164673768234    
  0.5430852718324665    0.5234687607934254    0.5040049930154772    0.3263535569166626    0.3925971663763356    
  0.515610224483217    0.5430853884121705    0.4923043641259664    0.46415690079552163    0.49230438435126134    
  0.5430852821555276    0.5156102060211633    0.3925972567806727    0.3263535569166626    0.11259253622248129    
  0.18485658865777496    0.39259726565156733    0.5234687488341764    0.4917845204944192    0.4594268789100596    
  0.4917844644023621    0.5234686868445495    0.3925971855919856    0.18485658276757647    0.11259253622248129    
  0.054503105469219056    0.11259250533564424    0.3263535087817384    0.5040049298068751    0.48834880185077534    
  0.45578261774030115    0.48834880590562346    0.5040049552936038    0.3263534282789466    0.11259250894653636    
  0.054503105469219056    
  END_DATAGRID_3D    
  END_BLOCK_DATAGRID_3D    