#     DFTpy    
  CRYSTAL 
    
  PRIMVEC    
  1.2921986983872304    -2.2381537990810547    0.0    
  1.2921986983872304    2.2381537990810547    0.0    
  0.0    0.0    2.4323357087586204    
  PRIMCOORD    
  1    1    
  Si    0.0    0.0    0.0    
  BEGIN_BLOCK_DATAGRID_3D    
  3d_datagrid_density    
  BEGIN_DATAGRID_3D#0    
  11    11    11    
  0.0    0.0    0.0    
  1.2921986983872304    -2.2381537990810547    0.0    
  1.2921986983872304    2.2381537990810547    0.0    
  0.0    0.0    2.4323357087586204    
  0.05112876134817995    0.10459589331094828    0.28678976776568543    0.41254733031169394    0.3777150471167994    
  0.34682014563083874    0.37771505399778116    0.4125473807513871    0.2867897504893598    0.10459590398342475    
  0.05112876134817995    0.10459591036933417    0.10431881947456961    0.23022221514095287    0.39016325653568446    
  0.3960595851063843    0.3452197853677863    0.3453512047900368    0.39594139351821617    0.3900750885371449    
  0.23017893095928213    0.10459591036933417    0.28678975994173056    0.2302221533470284    0.2873400276197691    
  0.3899687549759855    0.39941077616082116    0.3427905489262333    0.31592224197871754    0.3427677473531032    
  0.39961403181488586    0.3900750806227433    0.28678975994173056    0.41254731564025326    0.39016323714062867    
  0.38996877558504006    0.41219093174693916    0.3959376049382353    0.34301903669152706    0.30437470528451943    
  0.30445739042878206    0.34276772037753944    0.39594139101880527    0.41254731564025326    0.37771503319116106    
  0.39605952011450996    0.39941081407249235    0.3959375693814418    0.37813998475867444    0.3452823843608584    
  0.31573982978422616    0.304374775347741    0.3159222456610079    0.34535121490384024    0.37771503319116106    
  0.346820166254493    0.3452196805236832    0.3427905386898261    0.3430190416075323    0.3452824413050129    
  0.346421222684028    0.3452823855932048    0.3430190808603038    0.3427905045453931    0.3452197319273623    
  0.346820166254493    0.37771508102684903    0.3453512446052824    0.3159223083444592    0.30437468598896883    
  0.3157398994621108    0.3452824078790572    0.3781399412117993    0.39593760934645483    0.3994107935023152    
  0.3960595403314091    0.37771508102684903    0.4125473809142851    0.39594143442346114    0.3427677661271942    
  0.30445734024666254    0.30437477445356526    0.34301901905314436    0.39593755566950056    0.41219090973653    
  0.3899687691958444    0.39016318065775846    0.4125473809142851    0.28678975746207824    0.39007518175269945    
  0.3996140246538353    0.34276768735086255    0.3159223198832174    0.34279048302028886    0.39941079933816864    
  0.3899687840230357    0.28733996762146596    0.23022218344728126    0.28678975746207824    0.10459589738857789    
  0.23017891208163666    0.39007513173581815    0.3959413471784769    0.34535122936854495    0.34521977452057034    
  0.3960595028687671    0.3901632540932454    0.2302221355735582    0.10431884836889577    0.10459589738857789    
  0.05112876134817995    0.10459589331094828    0.28678976776568543    0.41254733031169394    0.3777150471167994    
  0.34682014563083874    0.37771505399778116    0.4125473807513871    0.2867897504893598    0.10459590398342475    
  0.05112876134817995    0.10036704615413974    0.16275320946728056    0.3268057263402996    0.40277675823142217    
  0.3528261966670829    0.3216361515876909    0.3528262114519067    0.40277676433532894    0.3268057061060477    
  0.16275324698581473    0.10036704615413974    0.16275325871367516    0.16245372984306167    0.28127336380336543    
  0.3956261954316799    0.37359044760014454    0.32052636510637933    0.320623928551301    0.37349870153850845    
  0.3955800772719446    0.2812107985655163    0.16275325871367516    0.3268057326466787    0.28127334521550573    
  0.3272722306155256    0.39548101855746065    0.378823955079459    0.31863937431087036    0.2927044048661155    
  0.31862780945919117    0.3789506444827457    0.3955800762818931    0.3268057326466787    0.40277676159583503    
  0.39562623098247485    0.3954810757946242    0.40249731613345424    0.3735092706500995    0.31878957634913796    
  0.2819132766708077    0.28196449481314007    0.3186278021329587    0.3734986888667022    0.40277676159583503    
  0.352826223202492    0.3735904058797339    0.378823994969075    0.3735092280323463    0.35314029713067385    
  0.3205705439702219    0.29258531296850515    0.2819133444234413    0.2927044109370743    0.3206239252674006    
  0.352826223202492    0.32163619786427894    0.32052626690913405    0.3186393772879887    0.31878957834392785    
  0.3205705594522128    0.32134322281219857    0.3205705216739632    0.3187896205949605    0.31863932650361315    
  0.320526300936265    0.32163619786427894    0.35282624175023364    0.3206239736164447    0.29270445851855237    
  0.2819132888223784    0.29258540621990736    0.3205705442811603    0.35314020719586625    0.3735093249086425    
  0.37882399447802895    0.37359042890806854    0.35282624175023364    0.40277676993076583    0.37349864799551413    
  0.3186277989870941    0.2819644075703521    0.2819133090115485    0.31878957912987416    0.3735092449175409    
  0.4024973539597655    0.3954810395820316    0.3956261933961779    0.40277676993076583    0.3268057251082393    
  0.39558016914043215    0.378950628205195    0.3186277766048905    0.29270445214800395    0.31863929556079834    
  0.37882398001958273    0.3954810666550507    0.3272721938101168    0.28127329955844677    0.3268057251082393    
  0.16275322879040874    0.28121075918590643    0.39558014130523034    0.3734986555885634    0.3206239912304232    
  0.32052638932272354    0.3735903703522178    0.3956262707476988    0.2812732961783596    0.16245372434782301    
  0.16275322879040874    0.10036704615413974    0.16275320946728056    0.3268057263402996    0.40277675823142217    
  0.3528261966670829    0.3216361515876909    0.3528262114519067    0.40277676433532894    0.3268057061060477    
  0.16275324698581473    0.10036704615413974    0.28687354810984345    0.33246189625158085    0.39494353044378266    
  0.3639806943891862    0.2922748597868062    0.2625691375414005    0.2922748582299526    0.3639807600311795    
  0.39494352071437067    0.3324619007569137    0.28687354810984345    0.3324619457644995    0.3322822133850004    
  0.3849916571300289    0.38470807542274454    0.3155350999363925    0.26214177079392226    0.2621708666008068    
  0.3155047514053801    0.38469974045351424    0.38494943420991884    0.3324619457644995    0.39494356558586047    
  0.38499162787176244    0.39513859236839216    0.384658509849933    0.323504951636977    0.26103524142540635    
  0.23801159947307912    0.2610341720841648    0.32353607018141123    0.3846997286972579    0.39494356558586047    
  0.36398073407514914    0.3847081097825215    0.38465855972783053    0.36388347992703013    0.3155116082680534    
  0.26108093406582805    0.2288626518532031    0.22888042759729238    0.26103415788585294    0.3155047318424152    
  0.36398073407514914    0.2922748823811815    0.315535032258826    0.32350496173704996    0.3155115976581284    
  0.29237788658302166    0.26214859639862026    0.23798214546163948    0.2288627169766823    0.23801158852428342    
  0.2621708880560464    0.2922748823811815    0.26256914905051293    0.2621417304081741    0.2610351980503066    
  0.2610809178252916    0.26214865262357245    0.2624831921509635    0.2621486014015024    0.261080942024316    
  0.2610352269304527    0.26214175637833803    0.26256914905051293    0.29227491111326226    0.2621708585658142    
  0.23801164877632103    0.22886268470197207    0.23798220472371123    0.2621486215505981    0.29237785470309763    
  0.31551163311170166    0.3235049474505886    0.31553509169311683    0.29227491111326226    0.36398072685962496    
  0.3155047343026817    0.261034161454406    0.2288803511143931    0.22886271063310068    0.26108092943927114    
  0.31551154235890677    0.3638835395515328    0.38465852547363055    0.38470806702654453    0.36398072685962496    
  0.3949435136817925    0.38469980924343566    0.3235360911431094    0.2610341180478624    0.2380116067527095    
  0.26103520134912067    0.3235049448840072    0.38465855118272485    0.3951385588901494    0.3849915776436997    
  0.3949435136817925    0.3324619544676814    0.38494936164529375    0.3846997775694174    0.3155046980638617    
  0.2621708821042935    0.26214179277323796    0.3155350274156995    0.38470814712018286    0.38499160115314307    
  0.3322822423166603    0.3324619544676814    0.28687354810984345    0.33246189625158085    0.39494353044378266    
  0.3639806943891862    0.2922748597868062    0.2625691375414005    0.2922748582299526    0.3639807600311795    
  0.39494352071437067    0.3324619007569137    0.28687354810984345    0.477187454571857    0.4616565794919068    
  0.3983443089349181    0.3011916490383691    0.2264172674512654    0.2008427758651341    0.22641728758443133    
  0.3011917090077797    0.3983442677379645    0.46165658640754903    0.477187454571857    0.46165660310601214    
  0.4616289221079558    0.4205950587942759    0.33532425070984345    0.24844070994693893    0.2008514410190102    
  0.20085348001271588    0.24843779614936026    0.3353157960731468    0.42059587816025923    0.46165660310601214    
  0.39834431063740827    0.4205950691241348    0.39838041873075813    0.33531078485315163    0.25708565713122744    
  0.20060993044661912    0.1814736106475729    0.2006105037685648    0.25709207427926195    0.33531578141343005    
  0.39834431063740827    0.301191685633103    0.3353243109919092    0.33531083659502664    0.3011807328846917    
  0.2484404851610878    0.20061639463559366    0.1743021948478859    0.17430122862279415    0.20061048155166297    
  0.24843775223387146    0.301191685633103    0.22641728134552525    0.24844066991690425    0.2570856875392926    
  0.24844049907515145    0.22642601866748494    0.2008527935855234    0.18146654746844754    0.1743022506750211    
  0.18147360612233182    0.20085349421225712    0.22641728134552525    0.2008427934966864    0.20085139286735354    
  0.2006098865448227    0.20061640573178166    0.20085284770820175    0.20083243039141502    0.20085281488098933    
  0.20061639010208676    0.20060989750668648    0.20085143785888285    0.2008427934966864    0.2264173032591349    
  0.20085347228425948    0.1814736432595472    0.17430222310315324    0.18146658268666338    0.20085282211436675    
  0.22642594713105965    0.24844051468290984    0.2570856778466836    0.24844069106342756    0.2264173032591349    
  0.3011917089551839    0.2484377530288314    0.2006104913272066    0.1743011667050005    0.17430225629436988    
  0.20061640062903285    0.24844044435314622    0.3011807876887746    0.3353108099349908    0.33532429101520767    
  0.3011917089551839    0.3983443022070093    0.3353158787601094    0.2570921082948005    0.20061045633117142    
  0.1814736301916646    0.20060988850135641    0.2570856787353352    0.33531085489217244    0.39838037533610204    
  0.42059499841761283    0.3983443022070093    0.4616566762750807    0.4205958142951521    0.335315817790698    
  0.24843772610761822    0.20085347762351308    0.20085146514792906    0.24844064591493667    0.3353243544430245    
  0.42059501852184816    0.46162894047669484    0.4616566762750807    0.477187454571857    0.4616565794919068    
  0.3983443089349181    0.3011916490383691    0.2264172674512654    0.2008427758651341    0.22641728758443133    
  0.3011917090077797    0.3983442677379645    0.46165658640754903    0.477187454571857    0.5016846558812675    
  0.45815394820853655    0.3541835524416676    0.24845843753945057    0.18088128244710705    0.15886155532772037    
  0.18088130275557823    0.24845845587884016    0.35418353778421297    0.4581539538158564    0.5016846558812675    
  0.45815398657423084    0.45815597513781947    0.38466754606703546    0.28222875783113505    0.20040529562059634    
  0.15917802128725023    0.15918035455681798    0.20040203331052792    0.282223951794171    0.38467545551792587    
  0.45815398657423084    0.35418356478024954    0.3846675105407508    0.3541899164735255    0.2822280695859772    
  0.20835859226256992    0.15969437036887218    0.14343233921099985    0.1596935938673158    0.20836559103277424    
  0.2822239158043931    0.35418356478024954    0.24845845127037022    0.2822287845417645    0.2822280928902335    
  0.24845521301222806    0.20040491486247122    0.1596959210321908    0.13780553964480982    0.13780453920391308    
  0.15969358117277738    0.2004020620207645    0.24845845127037022    0.1808813079504885    0.20040525771783332    
  0.20835860344146856    0.20040488465999728    0.1808811341252963    0.1591798313943081    0.14342949662050053    
  0.13780560118395999    0.14343231513898286    0.15918035881057582    0.1808813079504885    0.1588615971784947    
  0.15917798513501588    0.15969434673720045    0.15969590523386457    0.15917985024058212    0.15886037359196345    
  0.15917982619208063    0.1596959473198195    0.15969431222572764    0.1591780119890143    0.1588615971784947    
  0.18088131886009534    0.15918038159212375    0.14343235993484427    0.1378055465714387    0.1434295483329738    
  0.15917982696050262    0.1808810636125634    0.20040495330739314    0.20835859302706555    0.20040527954280593    
  0.18088131886009534    0.24845844069978731    0.2004020366188981    0.15969361194058448    0.1378044934884814    
  0.13780557717217803    0.15969591953293916    0.20040489008692253    0.2484552470699931    0.2822281009547332    
  0.2822287569141025    0.24845844069978731    0.35418354400038576    0.28222400780509    0.20836559371266203    
  0.15969358448251236    0.14343232749395132    0.15969433048272413    0.20835861266283642    0.28222813471349156    
  0.35418987872210267    0.38466748004102047    0.35418354400038576    0.4581539780158265    0.38467539951489294    
  0.2822239692026422    0.20040201389652582    0.15918039204886067    0.15917803724906393    0.20040523005390387    
  0.28222882982758135    0.384667464697634    0.45815596119323704    0.4581539780158265    0.5016846558812675    
  0.45815394820853655    0.3541835524416676    0.24845843753945057    0.18088128244710705    0.15886155532772037    
  0.18088130275557823    0.24845845587884016    0.35418353778421297    0.4581539538158564    0.5016846558812675    
  0.4831818008040069    0.43715468950826475    0.33156684829240596    0.22926555661278483    0.16542383198525779    
  0.14462190714421452    0.16542383348983805    0.22926559047672754    0.3315668375260113    0.4371547283354475    
  0.4831818008040069    0.43715474459925224    0.43716931307321416    0.3618651446792263    0.2613804860180317    
  0.18383619143319124    0.1450399083173658    0.14503816358975224    0.18383815339424955    0.26137312686827524    
  0.36187624911914973    0.43715474459925224    0.33156684623614147    0.36186507436794646    0.33156689842524273    
  0.26137253397650556    0.19133334441330754    0.14578374325538584    0.13049305415340698    0.14578405125122793    
  0.1913341249851629    0.2613731204121205    0.33156684623614147    0.22926554442981967    0.26138047495252437    
  0.26137254582521113    0.2292730483699149    0.18384027629530603    0.1457811446020922    0.1253913107821131    
  0.12538721193418034    0.14578402252625156    0.18383816829747676    0.22926554442981967    0.16542382086285626    
  0.18383614271981044    0.1913333555011794    0.18384025625118114    0.16541393326016107    0.14504168901890077    
  0.13049140463407982    0.1253913436192319    0.1304930426744854    0.1450381749678309    0.16542382086285626    
  0.14462194289825778    0.14503983343620566    0.14578373648859325    0.14578113377979626    0.1450417193307069    
  0.14462552683543003    0.1450416901456544    0.14578116542395683    0.14578370186329248    0.1450398740752146    
  0.14462194289825778    0.1654238545052131    0.1450381863726494    0.13049308755803038    0.12539128087330487    
  0.13049144596093987    0.14504170032156286    0.16541391573699601    0.18384027664286032    0.19133333770001856    
  0.18383616261451885    0.1654238545052131    0.229265578349957    0.18383818573745095    0.14578405068531572    
  0.1253871861412266    0.12539133947520434    0.14578113599507925    0.18384026524195302    0.2292730403853613    
  0.26137254739742577    0.2613804332623151    0.229265578349957    0.3315668420603718    0.261373196061626    
  0.19133412434812336    0.14578401957716106    0.13049309771576056    0.14578371061863263    0.19133334794428677    
  0.2613725640415423    0.33156684341949394    0.3618651231591086    0.3315668420603718    0.43715471541998696    
  0.36187622450321405    0.2613731486591184    0.18383814192451378    0.14503818661531478    0.1450398978186614    
  0.18383613039438734    0.26138049523577594    0.3618650521424692    0.43716935566100235    0.43715471541998696    
  0.4831818008040069    0.43715468950826475    0.33156684829240596    0.22926555661278483    0.16542383198525779    
  0.14462190714421452    0.16542383348983805    0.22926559047672754    0.3315668375260113    0.4371547283354475    
  0.4831818008040069    0.501684659317584    0.4581539240884373    0.3541835514502135    0.24845843658849617    
  0.1808812935840369    0.1588615513266932    0.18088129578106815    0.24845845504805786    0.35418354066273783    
  0.4581539739588056    0.501684659317584    0.45815401068075395    0.4581559764398485    0.3846675446480041    
  0.2822287576009419    0.20040529535112225    0.1591780410474992    0.15918034585784463    0.2004020515613444    
  0.2822239221812286    0.38467543275517585    0.45815401068075395    0.35418356179519994    0.38466752867009674    
  0.35418991413199613    0.2822280685308996    0.2083585837968101    0.15969436488371497    0.14343232462406924    
  0.15969359716408854    0.2083655921405508    0.2822239268450084    0.35418356179519994    0.24845844606481818    
  0.28222879315105304    0.2822281077898553    0.24845520933386683    0.20040490078516313    0.1596959336525674    
  0.1378055491257121    0.13780453611538415    0.1596935868457293    0.20040205020922014    0.24845844606481818    
  0.18088130972228306    0.2004052589493806    0.20835860721676538    0.20040488406778845    0.1808811308851247    
  0.15917982808108536    0.1434294963221933    0.13780558794438363    0.14343230160142367    0.15918035051193763    
  0.18088130972228306    0.15886159562210148    0.15917797680169385    0.15969435529226728    0.15969591777986564    
  0.15917982861351526    0.15886039095865162    0.1591798144166036    0.15969595735906764    0.1596943149043396    
  0.1591780078629766    0.15886159562210148    0.18088131613866673    0.15918036746433561    0.14343235241107447    
  0.13780554926051583    0.14342955336456764    0.1591798176663952    0.18088107822893623    0.20040493275186305    
  0.20835859881884822    0.20040527396131433    0.18088131613866673    0.24845844104485126    0.2004020199887931    
  0.1596935906668962    0.13780449700839126    0.13780557382741376    0.15969593011184627    0.20040490786516668    
  0.24845521843269008    0.28222806446284743    0.2822287762722786    0.24845844104485126    0.35418354203593794    
  0.2822240145931612    0.20836560077409003    0.15969359440378922    0.14343234726897564    0.15969432031412656    
  0.20835860393563224    0.2822281090920792    0.35418987476042674    0.38466748199428913    0.35418354203593794    
  0.4581539532432171    0.38467538234975557    0.2822239776811987    0.2004020256422685    0.15918040050022655    
  0.15917805767415413    0.20040524018960254    0.28222884036617524    0.38466747289146297    0.45815599019296094    
  0.4581539532432171    0.501684659317584    0.4581539240884373    0.3541835514502135    0.24845843658849617    
  0.1808812935840369    0.1588615513266932    0.18088129578106815    0.24845845504805786    0.35418354066273783    
  0.4581539739588056    0.501684659317584    0.47718745011008046    0.4616565923874578    0.3983443070596695    
  0.3011916535280368    0.2264172804546698    0.20084278687931445    0.2264172773645798    0.3011917142906432    
  0.39834430349616406    0.46165656871253025    0.47718745011008046    0.46165664570276294    0.46162890572982596    
  0.42059508094523546    0.3353242712479673    0.248440717781669    0.20085142741041606    0.20085348234870354    
  0.2484377768456269    0.3353158117555724    0.4205958708789386    0.46165664570276294    0.3983443484639736    
  0.4205950630936148    0.39838042833335835    0.33531079032325256    0.2570856696695033    0.2006099126132768    
  0.18147362833429612    0.20061049640827613    0.2570920825571713    0.33531579908202563    0.3983443484639736    
  0.3011916815846901    0.3353242953550674    0.3353108482721734    0.3011807365909944    0.2484404796593711    
  0.20061640167436204    0.1743021911993215    0.17430122724646294    0.20061047873950574    0.24843776061252476    
  0.3011916815846901    0.22641729534726251    0.248440652604117    0.2570856783101509    0.2484404703545717    
  0.22642598678877063    0.2008527979601289    0.18146653761842632    0.17430224844830208    0.18147360591394393    
  0.2008535052243061    0.22641729534726251    0.2008427938790802    0.20085139327718313    0.20060987709896216    
  0.2006163833285795    0.20085283371445953    0.20083241158408727    0.20085279827311064    0.2006164181653051    
  0.20060989249335445    0.2008514244475678    0.2008427938790802    0.22641732301029854    0.2008534801076103    
  0.18147367265583353    0.17430222172040216    0.1814665783943353    0.20085280507425413    0.22642597128486458    
  0.24844050561499983    0.2570856621792789    0.2484407114210739    0.22641732301029854    0.3011916892568955    
  0.24843777070806336    0.20061050618404125    0.17430118390272656    0.17430224550253287    0.20061640577483333    
  0.24844043744506902    0.3011807866574348    0.33531077454107033    0.335324267632479    0.3011916892568955    
  0.3983442909490266    0.3353158891855823    0.25709213217162985    0.20061047457230616    0.18147364342337313    
  0.2006098925770795    0.2570856723073002    0.3353108234283589    0.3983803725725657    0.4205950036058891    
  0.3983442909490266    0.46165664820032    0.4205958104558347    0.33531586074013336    0.2484377376863038    
  0.20085351496401635    0.20085145115085923    0.2484406617579406    0.3353243533384495    0.4205950255356771    
  0.46162894614803957    0.46165664820032    0.47718745011008046    0.4616565923874578    0.3983443070596695    
  0.3011916535280368    0.2264172804546698    0.20084278687931445    0.2264172773645798    0.3011917142906432    
  0.39834430349616406    0.46165656871253025    0.47718745011008046    0.2868735537855298    0.3324619037929495    
  0.39494354464168063    0.36398070072201005    0.29227485686110677    0.2625691438446965    0.29227486874087544    
  0.36398075274114383    0.39494348333905516    0.33246190691842525    0.2868735537855298    0.3324619337759853    
  0.3322822216831965    0.38499164558778853    0.38470805713841405    0.3155350792711711    0.26214179192822823    
  0.2621708546721629    0.3155047606922617    0.38469971257411284    0.3849494392483429    0.3324619337759853    
  0.39494354326554193    0.384991651210625    0.39513861137795386    0.3846585019423249    0.32350493403359293    
  0.26103525470381195    0.23801157195772507    0.2610341592252204    0.32353603910395634    0.384699694748202    
  0.39494354326554193    0.3639807339514108    0.38470811026868296    0.3846585618063317    0.36388347239164764    
  0.31551159867032075    0.26108092399065497    0.22886265194587932    0.22888041071654025    0.2610341437609705    
  0.31550470873233855    0.3639807339514108    0.2922748607318785    0.31553503020872037    0.32350495999153867    
  0.315511605699856    0.2923778969723735    0.2621485926216541    0.23798216735216482    0.22886270773062242    
  0.23801158465627267    0.26217087104816195    0.2922748607318785    0.2625691507449537    0.26214172914553036    
  0.2610352088594    0.26108092724642545    0.2621486470385869    0.26248321109487127    0.26214862046901016    
  0.2610809202518647    0.26103522121233863    0.2621417854102734    0.2625691507449537    0.2922749003289564    
  0.262170860132149    0.23801162322560548    0.22886268329542214    0.2379822031288222    0.2621486260148979    
  0.2923778306767262    0.31551163199815974    0.32350495503978244    0.3155350654460055    0.2922749003289564    
  0.3639807524038582    0.31550474114315835    0.26103416290886516    0.22888036105308765    0.2288627210698976    
  0.26108091833434427    0.3155115546852036    0.36388353458016864    0.3846585161875218    0.38470809665688815    
  0.3639807524038582    0.3949435330116198    0.38469982614382325    0.32353608992413624    0.26103412401547166    
  0.23801161710976504    0.2610352001460073    0.3235049566885154    0.3846585740813783    0.3951385488097712    
  0.38499156981959165    0.3949435330116198    0.33246196714074683    0.3849493925215339    0.3846997645124828    
  0.31550469534380177    0.26217087100019054    0.26214181837247813    0.31553502255465465    0.38470816622504805    
  0.3849915814379856    0.3322822243566459    0.33246196714074683    0.2868735537855298    0.3324619037929495    
  0.39494354464168063    0.36398070072201005    0.29227485686110677    0.2625691438446965    0.29227486874087544    
  0.36398075274114383    0.39494348333905516    0.33246190691842525    0.2868735537855298    0.10036704402023451    
  0.16275322922324276    0.32680572821588516    0.4027767526127144    0.35282618626488627    0.32163615587656896    
  0.35282621075020704    0.4027767770079259    0.3268057106255971    0.16275323140934916    0.10036704402023451    
  0.16275323993795732    0.162453721085514    0.2812733624531632    0.39562618922444875    0.3735904385821267    
  0.32052633759080934    0.3206239394750797    0.3734986638921162    0.3955800878192659    0.28121080809253207    
  0.16275323993795732    0.32680574924322986    0.28127331655372245    0.3272722362945354    0.39548101609752645    
  0.3788239677551786    0.31863937707005985    0.29270442249569245    0.31862779052686174    0.3789506326620371    
  0.39558005938390234    0.32680574924322986    0.40277676987436556    0.39562621414058297    0.39548105669454964    
  0.40249731484046025    0.3735092812634642    0.31878956057422614    0.2819132745555542    0.2819644810258055    
  0.31862779415196363    0.3734986843719306    0.40277676987436556    0.35282622233603245    0.3735903968287853    
  0.37882398498458614    0.37350922946342385    0.35314027556659366    0.3205705486883431    0.29258531241756003    
  0.281913362521461    0.29270442089500537    0.3206239437626917    0.35282622233603245    0.32163618308187625    
  0.3205262774344464    0.3186393724928176    0.3187895441044176    0.32057056717526433    0.3213431773693246    
  0.32057052997324686    0.31878960836716985    0.31863931345427526    0.32052631344296983    0.32163618308187625    
  0.3528262417646777    0.3206239951963475    0.2927044736255872    0.28191329300326534    0.29258539382813303    
  0.3205705430518136    0.35314019783633077    0.3735093318453065    0.3788239878219645    0.3735904298199518    
  0.3528262417646777    0.40277676772332216    0.37349866262604525    0.31862782315826166    0.2819644183840242    
  0.28191332987673823    0.31878955484606636    0.3735092274772955    0.40249737726564894    0.3954810664890429    
  0.3956261757332104    0.40277676772332216    0.32680571648198453    0.3955801761190413    0.3789506263175718    
  0.31862778215892196    0.2927044366093672    0.3186393189823057    0.3788239924718378    0.395481091286986    
  0.3272721938160901    0.281273296882166    0.32680571648198453    0.1627532522660269    0.28121077465269145    
  0.3955801436549417    0.3734986379627459    0.3206239913474036    0.3205263627932686    0.3735903641739671    
  0.39562626542757284    0.28127327709124145    0.16245372168638053    0.1627532522660269    0.10036704402023451    
  0.16275322922324276    0.32680572821588516    0.4027767526127144    0.35282618626488627    0.32163615587656896    
  0.35282621075020704    0.4027767770079259    0.3268057106255971    0.16275323140934916    0.10036704402023451    
  0.05112876134817995    0.10459589331094828    0.28678976776568543    0.41254733031169394    0.3777150471167994    
  0.34682014563083874    0.37771505399778116    0.4125473807513871    0.2867897504893598    0.10459590398342475    
  0.05112876134817995    0.10459591036933417    0.10431881947456961    0.23022221514095287    0.39016325653568446    
  0.3960595851063843    0.3452197853677863    0.3453512047900368    0.39594139351821617    0.3900750885371449    
  0.23017893095928213    0.10459591036933417    0.28678975994173056    0.2302221533470284    0.2873400276197691    
  0.3899687549759855    0.39941077616082116    0.3427905489262333    0.31592224197871754    0.3427677473531032    
  0.39961403181488586    0.3900750806227433    0.28678975994173056    0.41254731564025326    0.39016323714062867    
  0.38996877558504006    0.41219093174693916    0.3959376049382353    0.34301903669152706    0.30437470528451943    
  0.30445739042878206    0.34276772037753944    0.39594139101880527    0.41254731564025326    0.37771503319116106    
  0.39605952011450996    0.39941081407249235    0.3959375693814418    0.37813998475867444    0.3452823843608584    
  0.31573982978422616    0.304374775347741    0.3159222456610079    0.34535121490384024    0.37771503319116106    
  0.346820166254493    0.3452196805236832    0.3427905386898261    0.3430190416075323    0.3452824413050129    
  0.346421222684028    0.3452823855932048    0.3430190808603038    0.3427905045453931    0.3452197319273623    
  0.346820166254493    0.37771508102684903    0.3453512446052824    0.3159223083444592    0.30437468598896883    
  0.3157398994621108    0.3452824078790572    0.3781399412117993    0.39593760934645483    0.3994107935023152    
  0.3960595403314091    0.37771508102684903    0.4125473809142851    0.39594143442346114    0.3427677661271942    
  0.30445734024666254    0.30437477445356526    0.34301901905314436    0.39593755566950056    0.41219090973653    
  0.3899687691958444    0.39016318065775846    0.4125473809142851    0.28678975746207824    0.39007518175269945    
  0.3996140246538353    0.34276768735086255    0.3159223198832174    0.34279048302028886    0.39941079933816864    
  0.3899687840230357    0.28733996762146596    0.23022218344728126    0.28678975746207824    0.10459589738857789    
  0.23017891208163666    0.39007513173581815    0.3959413471784769    0.34535122936854495    0.34521977452057034    
  0.3960595028687671    0.3901632540932454    0.2302221355735582    0.10431884836889577    0.10459589738857789    
  0.05112876134817995    0.10459589331094828    0.28678976776568543    0.41254733031169394    0.3777150471167994    
  0.34682014563083874    0.37771505399778116    0.4125473807513871    0.2867897504893598    0.10459590398342475    
  0.05112876134817995    
  END_DATAGRID_3D    
  END_BLOCK_DATAGRID_3D    