#     DFTpy    
  CRYSTAL 
    
  PRIMVEC    
  1.1024352531695254    -1.9094738705446763    0.0    
  1.1024352531695254    1.9094738705446763    0.0    
  0.0    0.0    2.0751395557241374    
  PRIMCOORD    
  1    1    
  Si    0.0    0.0    0.0    
  BEGIN_BLOCK_DATAGRID_3D    
  3d_datagrid_density    
  BEGIN_DATAGRID_3D#0    
  11    11    9    
  0.0    0.0    0.0    
  1.1024352531695254    -1.9094738705446763    0.0    
  1.1024352531695254    1.9094738705446763    0.0    
  0.0    0.0    2.0751395557241374    
  0.05161714240698678    0.09241117884254739    0.2566871637740956    0.48898456526055695    0.5979758932110419    
  0.6102831851696272    0.5979757958547572    0.4889846160716712    0.2566871008837572    0.09241115326098619    
  0.05161714240698678    0.09241115454716178    0.09244914654129376    0.19862660881616645    0.4125148609609329    
  0.570778352742529    0.6045872341415051    0.604580068888061    0.5707949695871045    0.41246442656445714    
  0.19867239814569013    0.09241115454716178    0.2566871309641061    0.1986265814822067    0.25666316372974135    
  0.41250082072404776    0.5544078939555743    0.5945578259185745    0.5921137336548559    0.5945427979157579    
  0.5544620372525445    0.4124643910050196    0.2566871309641061    0.4889846113347582    0.41251478246104073    
  0.4125008468298428    0.48901634065127253    0.5707750653644091    0.5945837267826215    0.5835956416509172    
  0.5836059216931364    0.5945427094895537    0.5707949344324525    0.4889846113347582    0.5979758412943097    
  0.5707783928381935    0.5544078163788483    0.5707750472008127    0.5979455579529483    0.6045943398838123    
  0.5920770419478542    0.583595603730569    0.5921137012356574    0.6045800314563294    0.5979758412943097    
  0.6102832382669895    0.6045872858731788    0.5945578919483512    0.5945837896588239    0.6045944652338892    
  0.6102969362395533    0.6045944287729419    0.5945838121971568    0.5945577693296663    0.6045872688946706    
  0.6102832382669895    0.5979759036388647    0.6045800626407305    0.5921137245995692    0.5835955812178403    
  0.5920770890787894    0.6045943140514191    0.5979455239969076    0.5707751374182041    0.5544078628896092    
  0.5707783502342516    0.5979759036388647    0.48898453265725644    0.5707949316908039    0.5945427002390231    
  0.5836058426429859    0.5835956133708332    0.5945836634770962    0.5707751112649724    0.48901640285501813    
  0.41250080351063295    0.4125147782934866    0.48898453265725644    0.2566871567281426    0.41246440942534285    
  0.5544620325445466    0.5945426658224967    0.5921137958566991    0.5945577813699305    0.5544078799957967    
  0.4125008724752097    0.2566631723394447    0.19862659482957426    0.2566871567281426    0.09241116452496854    
  0.1986724039736972    0.412464412658856    0.5707949784027478    0.604580063228795    0.6045872416555896    
  0.5707783954122991    0.4125147721764863    0.19862658032802075    0.09244916559475495    0.09241116452496854    
  0.05161714240698678    0.09241117884254739    0.2566871637740956    0.48898456526055695    0.5979758932110419    
  0.6102831851696272    0.5979757958547572    0.4889846160716712    0.2566871008837572    0.09241115326098619    
  0.05161714240698678    0.11548370138928805    0.16712425357752222    0.32860889286264056    0.5026127821217956    
  0.561109899713398    0.5608020267619741    0.5611098773858623    0.5026128431272253    0.32860886301077374    
  0.16712423796288878    0.11548370138928805    0.16712423711298308    0.16713035547925637    0.2766967119059443    
  0.45029509658123534    0.5484689243720339    0.5565243645783933    0.5565280633619911    0.5484705991943899    
  0.4502621061554019    0.276724439909292    0.16712423711298308    0.3286088838022375    0.27669669533806546    
  0.3286263986181363    0.45027485641177206    0.5388765069068121    0.5489771237358934    0.5400865524203308    
  0.5489701708563297    0.5389154953936899    0.4502620407836986    0.3286088838022375    0.50261283611035    
  0.45029506768237987    0.4502748103575424    0.5026093988781035    0.5484598858940737    0.5490079400267813    
  0.5311623773316708    0.5311710353698091    0.5489700825406313    0.5484705783643757    0.50261283611035    
  0.5611098895609526    0.5484689590579165    0.5388765074185106    0.5484598276554763    0.5611228028974727    
  0.5565319775133287    0.5400533364977055    0.5311623654012119    0.540086543475408    0.5565280339115881    
  0.5611098895609526    0.5608020619509791    0.5565244738764535    0.548977180490344    0.549007962762892    
  0.5565320913266859    0.5607807492380785    0.5565319767444532    0.5490079644467558    0.548977132126234    
  0.5565244067099144    0.5608020619509791    0.561109926487587    0.5565280596945977    0.5400865996084105    
  0.5311623460808554    0.540053338444774    0.5565319661304868    0.5611227906266055    0.5484599016217204    
  0.5388765219691958    0.5484689450702883    0.561109926487587    0.5026128000234436    0.548470550345895    
  0.5489700968249808    0.5311710016683984    0.5311623279032132    0.5490078500025865    0.5484598900838458    
  0.502609457245902    0.45027484436409365    0.45029504755995786    0.5026128000234436    0.32860889158227913    
  0.45026210408405987    0.5389154508584516    0.5489700742377258    0.5400866270278225    0.5489771077637001    
  0.5388765288243517    0.45027491186416707    0.32862637511365134    0.27669670586744    0.32860889158227913    
  0.16712424633726894    0.27672443826615084    0.4502620819453406    0.5484705644369788    0.5565280783800902    
  0.5565244208266159    0.5484690141118003    0.4502950903076759    0.27669669803557684    0.16713037238444053    
  0.16712424633726894    0.11548370138928805    0.16712425357752222    0.32860889286264056    0.5026127821217956    
  0.561109899713398    0.5608020267619741    0.5611098773858623    0.5026128431272253    0.32860886301077374    
  0.16712423796288878    0.11548370138928805    0.3816208734393097    0.4184830979077295    0.4866478874037548    
  0.5049115733353212    0.47169949308007464    0.45078003404907646    0.4716994228553599    0.5049115951433061    
  0.48664783798337125    0.4184830616129317    0.3816208734393097    0.4184830684369866    0.4184607634171962    
  0.4702456365114367    0.505710740896963    0.48411177005689976    0.44936213932092384    0.4493668308576057    
  0.48410920727954626    0.5057049598362138    0.47024681132125    0.4184830684369866    0.48664788295709194    
  0.4702455872197237    0.4866733915629115    0.5057021127685766    0.48688114192545195    0.4467578400710217    
  0.427646383672549    0.4467557948213892    0.4868891702843691    0.505704952765998    0.48664788295709194    
  0.5049116607605508    0.5057106595476241    0.5057021379792631    0.504898570305981    0.4841059755402495    
  0.4467673396717288    0.41864257960366563    0.4186478783604686    0.44675570025140354    0.4841092261178461    
  0.5049116607605508    0.4716994547892724    0.48411174838089066    0.48688108589957824    0.48410598759474555    
  0.4717189643162333    0.4493655158673885    0.42763829386312857    0.418642582320396    0.4276463479861204    
  0.44936681501481335    0.4716994547892724    0.450780068180555    0.4493621997567073    0.4467578997700464    
  0.446767365019612    0.44936556745454703    0.4507597396203129    0.4493655457072535    0.4467673636165473    
  0.44675783655066664    0.4493621708488428    0.450780068180555    0.4716994890383341    0.44936685364829965    
  0.4276463360129499    0.4186425474623587    0.4276382787294419    0.4493654724449665    0.47171895544295944    
  0.48410603129728735    0.48688110494481723    0.4841117431864201    0.4716994890383341    0.5049115583328775    
  0.4841092197868769    0.4467557552097039    0.41864782150893554    0.4186425655787561    0.4467672522053295    
  0.48410601973304257    0.5048986194824358    0.5057020651217778    0.5057106608915825    0.5049115583328775    
  0.48664790397236735    0.5057049755020198    0.4868891953894189    0.4467556762467663    0.42764636681734913    
  0.44675784408636093    0.4868811130212112    0.5057021286154683    0.4866733611500471    0.47024560320588127    
  0.48664790397236735    0.4184830530110585    0.4702467961998334    0.5057049486174117    0.48410924541227396    
  0.44936684971261687    0.44936217759604924    0.4841117829930773    0.5057106926602539    0.47024554001811325    
  0.4184607672820679    0.4184830530110585    0.3816208734393097    0.4184830979077295    0.4866478874037548    
  0.5049115733353212    0.47169949308007464    0.45078003404907646    0.4716994228553599    0.5049115951433061    
  0.48664783798337125    0.4184830616129317    0.3816208734393097    0.6785017841308275    0.6519670435692355    
  0.5729787472941333    0.4684378296938986    0.3864232829903007    0.3566139994976975    0.38642324551634716    
  0.46843790556035975    0.5729786999963984    0.6519670080416748    0.6785017841308275    0.6519670092120015    
  0.6519633976606309    0.5983123848666311    0.5042261259075598    0.41088192059557793    0.3564445188515119    
  0.3564478770057366    0.41087908525216094    0.5042282793418122    0.5983077209287013    0.6519670092120015    
  0.5729787395157345    0.5983123664338451    0.5729784643628081    0.5042257058633255    0.42006126434282953    
  0.35601886123142473    0.332800986742873    0.3560181631882493    0.4200617944427884    0.5042282067510035    
  0.5729787395157345    0.46843790300503263    0.5042260761801942    0.5042256689851911    0.46843935534511494    
  0.41088188669206666    0.3560167506973154    0.32387653901791663    0.3238757273130972    0.35601811782432163    
  0.41087906336697766    0.46843790300503263    0.3864232638738842    0.4108819389381146    0.4200612531883557    
  0.41088185051079945    0.38642042728042486    0.35644746942511535    0.3328007848080052    0.3238765358560947    
  0.3328009701281427    0.35644788179813675    0.3864232638738842    0.35661399123954335    0.3564446157119729    
  0.3560189031847453    0.35601679334861797    0.35644757991904386    0.35661364095509557    0.3564475387857382    
  0.3560168042535022    0.3560188657575386    0.3564445493596654    0.35661399123954335    0.38642327977012114    
  0.35644789058544857    0.3328009911210506    0.32387653125145205    0.3328008090309993    0.35644749908809975    
  0.38642042992858394    0.4108819206571668    0.4200612579809666    0.4108819313836405    0.38642327977012114    
  0.46843786361568285    0.4108790494723389    0.35601814182278935    0.32387570084992195    0.32387650552403974    
  0.3560167240851562    0.4108818696679605    0.4684394052147773    0.5042256621256391    0.5042260834467748    
  0.46843786361568285    0.572978739886709    0.504228252569978    0.42006177151653484    0.35601810548696916    
  0.3328010089528631    0.3560188929790078    0.4200612878683515    0.5042257752009661    0.5729784712707924    
  0.598312358977966    0.572978739886709    0.651967032390531    0.5983076785260413    0.5042282687776087    
  0.4108790968778803    0.35644789991842335    0.356444549573538    0.41088193921032345    0.5042260709757719    
  0.5983123516195726    0.6519634333353543    0.651967032390531    0.6785017841308275    0.6519670435692355    
  0.5729787472941333    0.4684378296938986    0.3864232829903007    0.3566139994976975    0.38642324551634716    
  0.46843790556035975    0.5729786999963984    0.6519670080416748    0.6785017841308275    0.7625394617594909    
  0.7096644288220161    0.5808382401163497    0.4446928564133621    0.3533941731759292    0.32256514526778446    
  0.35339411156089634    0.44469289182539457    0.5808381426739588    0.709664369388797    0.7625394617594909    
  0.709664347633878    0.709673679490273    0.6188989329451969    0.48849762682459735    0.3796746339234868    
  0.32236646791058143    0.32236770659072417    0.37967341211475264    0.48849601432300044    0.6189024899666898    
  0.709664347633878    0.5808381707134653    0.6188988883921697    0.5808325421461267    0.4884992550980824    
  0.3899000096459773    0.3219175720377075    0.29838031941566034    0.3219164392870369    0.3899039917949132    
  0.48849599227884416    0.5808381707134653    0.44469291130822747    0.48849756351085694    0.4884992925749658    
  0.4446943982396876    0.3796744288696904    0.32191820219230116    0.28937827656041215    0.28938006846556463    
  0.32191637822024644    0.379673408929391    0.44469291130822747    0.3533941499648935    0.37967468140431704    
  0.38989994490925445    0.379674418959259    0.3533917681811979    0.3223660735614211    0.29838065643853373    
  0.2893782493219198    0.29838030565209034    0.3223677069549248    0.3533941499648935    0.32256516028278936    
  0.3223664981722984    0.3219176200450281    0.3219182434570019    0.3223661279970299    0.3225688661622956    
  0.32236612352200456    0.3219182460701462    0.3219175277325291    0.3223665084279518    0.32256516028278936    
  0.3533941865893426    0.32236770483862165    0.29838031662628683    0.28937823972684684    0.29838066724810947    
  0.3223660428400785    0.3533917565453713    0.3796744936717052    0.3898999935778567    0.3796746494333515    
  0.3533941865893426    0.44469283949682037    0.3796733912803194    0.3219163766839108    0.28938001553005044    
  0.28937825168577996    0.3219181417402047    0.37967446735516197    0.4446944417900984    0.48849922256731043    
  0.4884975519377531    0.44469283949682037    0.5808381988245195    0.488496005019139    0.3899039995410337    
  0.321916349572279    0.298380373216777    0.32191753756935393    0.38989998443795004    0.4884993119559816    
  0.5808325560532168    0.6188988765400993    0.5808381988245195    0.7096643694849752    0.6189024948229378    
  0.48849601138328375    0.37967342738266097    0.3223677139597085    0.32236646683836967    0.3796746721581193    
  0.488497547002654    0.6188988671715854    0.7096737108186492    0.7096643694849752    0.7625394617594909    
  0.7096644288220161    0.5808382401163497    0.4446928564133621    0.3533941731759292    0.32256514526778446    
  0.35339411156089634    0.44469289182539457    0.5808381426739588    0.709664369388797    0.7625394617594909    
  0.678501773795399    0.6519670498533902    0.5729787382666733    0.46843783329857946    0.3864232634561942    
  0.35661398821383167    0.3864232496864187    0.46843790603104857    0.5729787087201458    0.6519670049292039    
  0.678501773795399    0.6519669745700292    0.6519634124801035    0.5983123719822097    0.5042261086816199    
  0.41088189912213974    0.3564445240077407    0.3564478917631105    0.41087908717087657    0.5042282573799515    
  0.5983077186745143    0.6519669745700292    0.5729787289023468    0.598312370046061    0.5729784354162852    
  0.5042256746114482    0.42006127469795485    0.3560188818433901    0.3328009817847727    0.35601817411541054    
  0.42006180487611827    0.5042281997175684    0.5729787289023468    0.4684378938187664    0.5042260957168695    
  0.5042256197857284    0.4684393716002769    0.4108818907115575    0.35601676489719053    0.32387655955325806    
  0.323875735515063    0.35601810294198327    0.4108790699710013    0.4684378938187664    0.386423268171848    
  0.41088194284212926    0.4200612725464516    0.41088182891746455    0.38642043391436925    0.356447485410865    
  0.3328007956265462    0.32387653248857456    0.33280096714421253    0.35644787369942854    0.386423268171848    
  0.3566139917260799    0.35644459872550327    0.35601892392647533    0.3560167865949562    0.35644757293180385    
  0.3566136247029124    0.35644749861512054    0.3560168025204601    0.3560188837759759    0.3564445516370111    
  0.3566139917260799    0.38642328560772327    0.35644788533219035    0.3328010119623371    0.32387652084773905    
  0.3328008009632089    0.35644749334979847    0.3864204305585907    0.41088190299698785    0.4200612742177019    
  0.4108819286407965    0.38642328560772327    0.46843786378137975    0.4108790309446858    0.35601811378691056    
  0.32387570183069364    0.3238765148005972    0.35601670907130634    0.41088189043669787    0.4684394248391124    
  0.5042256591707691    0.5042260708481269    0.46843786378137975    0.5729787213084441    0.5042282750128751    
  0.4200617562261989    0.3560181027145078    0.33280103626864643    0.35601887111025443    0.42006128044567204    
  0.504225755270392    0.5729784309662432    0.5983123546054163    0.5729787213084441    0.651967014711348    
  0.5983077078799088    0.5042282450822656    0.41087905939653724    0.3564479008926146    0.356444563074429    
  0.4108819700287295    0.5042261226543563    0.5983123800962286    0.6519634330501964    0.651967014711348    
  0.678501773795399    0.6519670498533902    0.5729787382666733    0.46843783329857946    0.3864232634561942    
  0.35661398821383167    0.3864232496864187    0.46843790603104857    0.5729787087201458    0.6519670049292039    
  0.678501773795399    0.3816208704029106    0.41848309960370067    0.4866478976750261    0.5049115869087369    
  0.47169949231721914    0.4507800334572019    0.4716994166418108    0.504911592006347    0.4866478349701368    
  0.41848306583053263    0.3816208704029106    0.418483071303035    0.41846076390329656    0.47024563550277143    
  0.5057107456499244    0.48411177831765384    0.44936213791925406    0.44936682915928133    0.48410921015015174    
  0.5057049697625591    0.47024679521060736    0.418483071303035    0.4866478817667921    0.47024559207164396    
  0.48667338796671605    0.5057021080685395    0.48688113298674474    0.4467578281764136    0.4276463858203875    
  0.4467557963088047    0.4868891678522476    0.5057049501741735    0.4866478817667921    0.5049116456342969    
  0.5057106752867723    0.5057021294825388    0.5048985673389546    0.4841059679909015    0.4467673405067594    
  0.4186425826221683    0.418647879918429    0.4467557005137326    0.48410921680825214    0.5049116456342969    
  0.47169944821481874    0.4841117487620124    0.4868810962179798    0.48410597912011805    0.47171895213163284    
  0.4493655087182664    0.42763829990402896    0.4186425844879917    0.4276463551147912    0.449366805010491    
  0.47169944821481874    0.45078008361408756    0.4493622023018212    0.4467578965701508    0.4467673501313628    
  0.44936557425262413    0.45075974983614087    0.44936554725029254    0.4467673683714693    0.4467578389130223    
  0.4493621758824414    0.45078008361408756    0.4716994870419776    0.4493668390823582    0.4276463331713522    
  0.4186425419727894    0.427638270917279    0.4493654751933937    0.4717189491989435    0.48410604143707314    
  0.48688111105451004    0.48411173724961276    0.4716994870419776    0.5049115607571634    0.48410921495471426    
  0.4467557504185956    0.4186478165270641    0.41864256149041984    0.44676725394021555    0.48410601427458855    
  0.5048986142833541    0.5057020851753233    0.5057106511400282    0.5049115607571634    0.48664792064839846    
  0.50570497692221    0.48688918771376055    0.44675568026825063    0.42764637499577507    0.4467578436973707    
  0.4868811106014522    0.5057021307586174    0.4866733505509473    0.47024561049049163    0.48664792064839846    
  0.41848305429741034    0.47024678839648143    0.505704954459268    0.4841092554222956    0.44936685983855146    
  0.44936217372431897    0.48411177404443956    0.5057107026731308    0.47024554321657874    0.41846077712629837    
  0.41848305429741034    0.3816208704029106    0.41848309960370067    0.4866478976750261    0.5049115869087369    
  0.47169949231721914    0.4507800334572019    0.4716994166418108    0.504911592006347    0.4866478349701368    
  0.41848306583053263    0.3816208704029106    0.11548370264023483    0.16712425001778342    0.3286089038289354    
  0.5026127813099855    0.5611099046063872    0.5608020375529141    0.5611098557576573    0.5026128599490389    
  0.32860885061023104    0.16712424006540674    0.11548370264023483    0.16712423625842224    0.16713035158052927    
  0.27669671375093846    0.4502951045814236    0.5484689352996505    0.5565243587920786    0.5565280485214534    
  0.548470597572104    0.4502620993967923    0.276724430106492    0.16712423625842224    0.32860888633038077    
  0.27669668093917554    0.3286264016244144    0.45027489601697535    0.5388764798078419    0.5489770981764102    
  0.5400865620536935    0.5489701862156785    0.5389154685299111    0.4502620511455833    0.32860888633038077    
  0.5026128329793821    0.4502950613715706    0.4502748319958053    0.5026093981576931    0.5484598955163869    
  0.5490079031356249    0.5311623576246927    0.5311710365941832    0.5489701186235052    0.548470553854452    
  0.5026128329793821    0.5611098897995219    0.5484689698258594    0.5388764858955917    0.5484598482787546    
  0.5611227885763008    0.5565319409960046    0.540053317855308    0.5311623683139902    0.5400865515633073    
  0.5565280239999195    0.5611098897995219    0.560802054931282    0.5565244767021846    0.5489771574518255    
  0.5490079534251916    0.5565320954192813    0.5607807752570632    0.5565320178569972    0.5490079668847108    
  0.5489771249784322    0.5565243950708885    0.560802054931282    0.5611099204719401    0.5565280596364479    
  0.5400865830130592    0.5311623537593337    0.5400533595574362    0.5565319773624269    0.5611227681845943    
  0.5484599296713625    0.538876481364075    0.5484689412161458    0.5611099204719401    0.5026128115104243    
  0.5484705562702197    0.5489701256603242    0.5311710049290124    0.5311623288772406    0.5490078741574222    
  0.5484598641436157    0.5026094393047258    0.4502748433077449    0.45029504077535953    0.5026128115104243    
  0.32860890165389406    0.45026208640584026    0.5389154536816749    0.5489700895791787    0.5400865998315304    
  0.5489771416292462    0.5388765442601617    0.4502749436162652    0.328626398680357    0.27669671285437414    
  0.32860890165389406    0.16712424225247866    0.27672441098983946    0.45026209524064936    0.5484706029228662    
  0.5565280772344784    0.5565244061362039    0.5484689585282541    0.4502950423093051    0.27669668195458397    
  0.16713037420648175    0.16712424225247866    0.11548370264023483    0.16712425001778342    0.3286089038289354    
  0.5026127813099855    0.5611099046063872    0.5608020375529141    0.5611098557576573    0.5026128599490389    
  0.32860885061023104    0.16712424006540674    0.11548370264023483    0.05161714240698678    0.09241117884254739    
  0.2566871637740956    0.48898456526055695    0.5979758932110419    0.6102831851696272    0.5979757958547572    
  0.4889846160716712    0.2566871008837572    0.09241115326098619    0.05161714240698678    0.09241115454716178    
  0.09244914654129376    0.19862660881616645    0.4125148609609329    0.570778352742529    0.6045872341415051    
  0.604580068888061    0.5707949695871045    0.41246442656445714    0.19867239814569013    0.09241115454716178    
  0.2566871309641061    0.1986265814822067    0.25666316372974135    0.41250082072404776    0.5544078939555743    
  0.5945578259185745    0.5921137336548559    0.5945427979157579    0.5544620372525445    0.4124643910050196    
  0.2566871309641061    0.4889846113347582    0.41251478246104073    0.4125008468298428    0.48901634065127253    
  0.5707750653644091    0.5945837267826215    0.5835956416509172    0.5836059216931364    0.5945427094895537    
  0.5707949344324525    0.4889846113347582    0.5979758412943097    0.5707783928381935    0.5544078163788483    
  0.5707750472008127    0.5979455579529483    0.6045943398838123    0.5920770419478542    0.583595603730569    
  0.5921137012356574    0.6045800314563294    0.5979758412943097    0.6102832382669895    0.6045872858731788    
  0.5945578919483512    0.5945837896588239    0.6045944652338892    0.6102969362395533    0.6045944287729419    
  0.5945838121971568    0.5945577693296663    0.6045872688946706    0.6102832382669895    0.5979759036388647    
  0.6045800626407305    0.5921137245995692    0.5835955812178403    0.5920770890787894    0.6045943140514191    
  0.5979455239969076    0.5707751374182041    0.5544078628896092    0.5707783502342516    0.5979759036388647    
  0.48898453265725644    0.5707949316908039    0.5945427002390231    0.5836058426429859    0.5835956133708332    
  0.5945836634770962    0.5707751112649724    0.48901640285501813    0.41250080351063295    0.4125147782934866    
  0.48898453265725644    0.2566871567281426    0.41246440942534285    0.5544620325445466    0.5945426658224967    
  0.5921137958566991    0.5945577813699305    0.5544078799957967    0.4125008724752097    0.2566631723394447    
  0.19862659482957426    0.2566871567281426    0.09241116452496854    0.1986724039736972    0.412464412658856    
  0.5707949784027478    0.604580063228795    0.6045872416555896    0.5707783954122991    0.4125147721764863    
  0.19862658032802075    0.09244916559475495    0.09241116452496854    0.05161714240698678    0.09241117884254739    
  0.2566871637740956    0.48898456526055695    0.5979758932110419    0.6102831851696272    0.5979757958547572    
  0.4889846160716712    0.2566871008837572    0.09241115326098619    0.05161714240698678    
  END_DATAGRID_3D    
  END_BLOCK_DATAGRID_3D    