#     DFTpy    
  CRYSTAL 
    
  PRIMVEC    
  1.0482171259644668    -1.8155653195342822    0.0    
  1.0482171259644668    1.8155653195342822    0.0    
  0.0    0.0    1.9730835119999997    
  PRIMCOORD    
  1    1    
  Si    0.0    0.0    0.0    
  BEGIN_BLOCK_DATAGRID_3D    
  3d_datagrid_density    
  BEGIN_DATAGRID_3D#0    
  9    9    9    
  0.0    0.0    0.0    
  1.0482171259644668    -1.8155653195342822    0.0    
  1.0482171259644668    1.8155653195342822    0.0    
  0.0    0.0    1.9730835119999997    
  0.0554437571845768    0.12348193236223252    0.3893186119820748    0.6545857270998199    0.7128396455376237    
  0.6545858367840948    0.3893185816458463    0.12348193791464807    0.0554437571845768    0.12348193145668168    
  0.1230860857031964    0.3007319905968987    0.5828263315493895    0.7004309525308341    0.7001809549533604    
  0.5826325352253077    0.3007011379164622    0.12348193145668168    0.3893185944170178    0.3007320125232917    
  0.39021076783389325    0.5824820354557295    0.6874743666171443    0.6969120631591589    0.6879428074978032    
  0.582632544148039    0.3893185944170178    0.6545858748623455    0.5828263116161388    0.582482098503009    
  0.6539424519961184    0.700187926858309    0.6975356965845141    0.6969120611700723    0.7001808557716821    
  0.6545858748623455    0.7128396384718285    0.700430873132908    0.6874743344241815    0.7001879479317794    
  0.7136393871310066    0.7001878914954052    0.6874744502153209    0.7004309446229685    0.7128396384718285    
  0.6545858404531242    0.7001809936814968    0.6969121060930618    0.697535692611466    0.700187936244599    
  0.653942439416033    0.5824821604854472    0.58282622197888    0.6545858404531242    0.38931863509938625    
  0.5826326172786108    0.6879427345712171    0.6969120281018029    0.6874743147676906    0.5824821176143645    
  0.39021072698755327    0.30073199430634334    0.38931863509938625    0.1234819450426898    0.30070119229717035    
  0.5826325656146875    0.7001809750032726    0.7004309416850292    0.5828263562568661    0.30073205913698803    
  0.12308605548659594    0.1234819450426898    0.0554437571845768    0.12348193236223252    0.3893186119820748    
  0.6545857270998199    0.7128396455376237    0.6545858367840948    0.3893185816458463    0.12348193791464807    
  0.0554437571845768    0.11747797429173944    0.19993128968911889    0.4449097600915684    0.6326054103404125    
  0.6621334330904378    0.6326055333799264    0.4449097626341771    0.19993128783065578    0.11747797429173944    
  0.19993129387935885    0.19949310313878196    0.37124119833574154    0.5869541325281392    0.6537261960376185    
  0.6535470846167097    0.5868351048242567    0.3711835489659348    0.19993129387935885    0.44490978060247566    
  0.3712412333663336    0.4456736706490505    0.5866965737697677    0.6448599955699135    0.6417617283691837    
  0.6451568346146546    0.5868350742444511    0.44490978060247566    0.6326055475314096    0.586954143373659    
  0.5866966303653217    0.6320989381875404    0.6535631475120985    0.6421640195472464    0.6417615802749995    
  0.6535471005809572    0.6326055475314096    0.6621334263271811    0.6537261354365751    0.6448599345261564    
  0.6535631368476031    0.6627322724763455    0.6535631847807939    0.6448599891786126    0.6537261467480288    
  0.6621334263271811    0.6326054945817965    0.6535470923310861    0.6417616752945414    0.6421640469008824    
  0.6535632216663183    0.6320989796479793    0.5866967235446676    0.5869540750843031    0.6326054945817965    
  0.44490974129659605    0.5868351495315326    0.64515679395109    0.6417615960905461    0.6448599707803708    
  0.5866966844368408    0.4456736066062338    0.37124119773985953    0.44490974129659605    0.1999313114681092    
  0.37118355956665583    0.5868350327575454    0.6535471306044254    0.6537261490737969    0.5869541406737612    
  0.3712412486028315    0.1994930490297063    0.1999313114681092    0.11747797429173944    0.19993128968911889    
  0.4449097600915684    0.6326054103404125    0.6621334330904378    0.6326055333799264    0.4449097626341771    
  0.19993128783065578    0.11747797429173944    0.3817440812585391    0.44579170655651723    0.553097242619905    
  0.5704167202585504    0.5509352311694897    0.5704167858527893    0.5530971396523984    0.4457916819026016    
  0.3817440812585391    0.44579172139286394    0.4455240683393278    0.5298561620385014    0.5729009510583684    
  0.547437034658746    0.5473837794495457    0.5728743347616787    0.5298107519616527    0.44579172139286394    
  0.5530971313914567    0.5298561601072254    0.5534142561301035    0.5728284821028887    0.5437386246882157    
  0.5199852107816265    0.5438114783843319    0.5728743633868578    0.5530971313914567    0.5704167991743176    
  0.5729009826825336    0.57282855453354    0.5702233596531524    0.5473927800898583    0.5200833496236982    
  0.5199851976671962    0.5473837251804458    0.5704167991743176    0.5509352387242276    0.547436978781998    
  0.5437386340429116    0.5473927976029245    0.5511400640029608    0.5473927825840407    0.5437386593591914    
  0.5474370366422764    0.5509352387242276    0.5704167286938097    0.5473838226068887    0.519985189866215    
  0.5200833243892976    0.5473928124684778    0.5702233277763002    0.5728286163884998    0.5729008667899166    
  0.5704167286938097    0.5530972012870231    0.5728744325897736    0.5438114444280582    0.5199851575711835    
  0.5437386055180458    0.5728285506539549    0.5534142063902866    0.5298561575961211    0.5530972012870231    
  0.4457917172311539    0.5298108387229684    0.5728743831336157    0.5473838258158065    0.5474370022293228    
  0.5729010273015929    0.5298562365377817    0.4455240184373431    0.4457917172311539    0.3817440812585391    
  0.44579170655651723    0.553097242619905    0.5704167202585504    0.5509352311694897    0.5704167858527893    
  0.5530971396523984    0.4457916819026016    0.3817440812585391    0.7179154666010006    0.6902452468704136    
  0.6030505223106385    0.49842253691076355    0.4532107003904666    0.49842255205192937    0.6030504536621525    
  0.6902452691935984    0.7179154666010006    0.6902452443953768    0.6902041322688209    0.6306169191026391    
  0.5285163418643739    0.45140544776393193    0.45140151919923216    0.5285236467597056    0.6305961928220433    
  0.6902452443953768    0.6030504955522412    0.6306169749019327    0.6030847595964162    0.5285263105478178    
  0.44954946671092405    0.4172761539458909    0.44954240958030567    0.5285236073089052    0.6030504955522412    
  0.49842260802383953    0.5285163119731788    0.5285264125973946    0.4983943669635873    0.4513994149894367    
  0.41727427131793987    0.4172760775979836    0.4514015310414155    0.49842260802383953    0.453210732390679    
  0.45140541844751075    0.4495494294010939    0.45139947432215943    0.45324389736156717    0.45139946558886884    
  0.4495494174695725    0.45140540505810167    0.453210732390679    0.4984225988575919    0.45140157148393356    
  0.41727609793698855    0.4172743068819573    0.45139949715947103    0.49839434869055865    0.5285264458474985    
  0.5285162660805328    0.4984225988575919    0.6030504830681964    0.5285236707530405    0.4495423733252202    
  0.4172760489476964    0.4495494391578886    0.5285264512981822    0.6030847130028824    0.6306169384165943    
  0.6030504830681964    0.6902453045550995    0.630596232452506    0.5285235533520563    0.45140156946928794    
  0.45140543895525526    0.5285163333112951    0.6306170174706713    0.6902040062713898    0.6902453045550995    
  0.7179154666010006    0.6902452468704136    0.6030505223106385    0.49842253691076355    0.4532107003904666    
  0.49842255205192937    0.6030504536621525    0.6902452691935984    0.7179154666010006    0.8328444685129162    
  0.7617501874471947    0.603877370533736    0.4667386696703706    0.41620334154428046    0.4667387644152806    
  0.6038773216204021    0.7617501532719507    0.8328444685129162    0.7617501569860712    0.7617615861955519    
  0.6474258338738523    0.5030375384571483    0.4148187650449362    0.4148347163120256    0.5030471898274231    
  0.6474125006574852    0.7617501569860712    0.6038773371158934    0.6474258664323352    0.6038612471505139    
  0.5030514081356496    0.4134437814082185    0.3805679787232844    0.4134125418406867    0.5030471905056326    
  0.6038773371158934    0.4667388320594433    0.5030375220780506    0.5030514493903551    0.46674895239875536    
  0.4148162390825952    0.3805580302197075    0.3805679861812217    0.41483465710348344    0.4667388320594433    
  0.4162033237478694    0.4148186941844382    0.41344374260419064    0.4148162757376431    0.41621867217593056    
  0.4148162350199811    0.4134438335520628    0.4148187308171325    0.4162033237478694    0.4667387795362493    
  0.4148347595334644    0.38056800555691633    0.3805580246777183    0.4148162579309565    0.4667489142982254    
  0.5030514889694649    0.503037442535184    0.4667387795362493    0.6038773808210128    0.5030472582391474    
  0.41341248110306783    0.3805679621766329    0.4134437256141492    0.5030514743445551    0.6038612080056129    
  0.6474258399392837    0.6038773808210128    0.7617502258840779    0.647412574764979    0.5030471981156764    
  0.41483475164453976    0.4148187525475767    0.5030375691429709    0.6474259557147573    0.7617614913958368    
  0.7617502258840779    0.8328444685129162    0.7617501874471947    0.603877370533736    0.4667386696703706    
  0.41620334154428046    0.4667387644152806    0.6038773216204021    0.7617501532719507    0.8328444685129162    
  0.7179154594407284    0.6902452591456382    0.6030504780344591    0.4984225122200531    0.45321073570279724    
  0.4984225576669832    0.6030504933782849    0.690245273391464    0.7179154594407284    0.6902452710430196    
  0.6902041268185649    0.6306169419114582    0.5285163204977676    0.45140544688178014    0.4514014880321063    
  0.5285236437496358    0.6305962527098884    0.6902452710430196    0.603050508821371    0.6306169718354858    
  0.6030847586269775    0.5285263377627714    0.44954943971897676    0.4172761582055552    0.4495424176084522    
  0.5285236019144306    0.603050508821371    0.4984226276347727    0.5285163110246022    0.5285263991079544    
  0.49839434273814076    0.45139944612473437    0.41727428413773326    0.417276038587873    0.45140153184821097    
  0.4984226276347727    0.45321070678729297    0.4514053960790385    0.4495493999995559    0.4513994485387704    
  0.4532439245863492    0.4513994676181887    0.449549415955101    0.45140538453163526    0.45321070678729297    
  0.49842254709118133    0.45140150082748687    0.41727610683530414    0.4172743047072346    0.4513994599637115    
  0.49839437375581225    0.5285264824450516    0.5285162756878089    0.49842254709118133    0.6030504437469526    
  0.5285236784273334    0.4495423704080001    0.4172760482804288    0.44954942679726906    0.5285264780459537    
  0.6030846957626171    0.6306169188152834    0.6030504437469526    0.690245288091178    0.6305962504008464    
  0.5285235543085005    0.45140153721388954    0.4514054161168662    0.5285163427115644    0.630617012288949    
  0.6902040395589399    0.690245288091178    0.7179154594407284    0.6902452591456382    0.6030504780344591    
  0.4984225122200531    0.45321073570279724    0.4984225576669832    0.6030504933782849    0.690245273391464    
  0.7179154594407284    0.38174408477995164    0.4457917012138313    0.5530972208772466    0.5704167314447974    
  0.5509352244400172    0.5704167781365223    0.5530971340884587    0.4457916872805924    0.38174408477995164    
  0.44579172642559645    0.44552407242884784    0.529856160846983    0.5729009654092075    0.5474370556610685    
  0.547383782663288    0.5728743306723831    0.5298107516952406    0.44579172642559645    0.5530971392413098    
  0.5298561572850458    0.553414240731205    0.5728284708288064    0.5437386259486992    0.5199852195567223    
  0.5438114905780543    0.5728743593175004    0.5530971392413098    0.5704168159706712    0.5729009935069003    
  0.5728285397109474    0.5702233584180361    0.5473928004119171    0.5200833527989622    0.519985202461947    
  0.5473837273746107    0.5704168159706712    0.5509352481493951    0.5474369679815758    0.5437386567727722    
  0.5473928130032774    0.5511400583489316    0.5473927891920808    0.5437386702397246    0.5474370483997848    
  0.5509352481493951    0.57041672519448    0.5473838064211269    0.5199851749372347    0.5200833188371445    
  0.5473928088541975    0.570223332862837    0.572828628854163    0.5729008995876619    0.57041672519448    
  0.5530971866893752    0.5728744381807334    0.5438114364638295    0.5199851668821863    0.5437386020956104    
  0.572828546598513    0.5534141914065146    0.5298561657251567    0.5530971866893752    0.44579172462077765    
  0.5298108336118852    0.5728744071288815    0.5473838247761016    0.5474370164079431    0.5729010005103518    
  0.5298562226264935    0.4455240319633053    0.44579172462077765    0.38174408477995164    0.4457917012138313    
  0.5530972208772466    0.5704167314447974    0.5509352244400172    0.5704167781365223    0.5530971340884587    
  0.4457916872805924    0.38174408477995164    0.11747795906947121    0.19993127578044673    0.44490978805984654    
  0.6326054387742904    0.6621333982444154    0.632605468888862    0.4449097184034274    0.19993129139201404    
  0.11747795906947121    0.19993129214763564    0.1994931027234933    0.37124120837777397    0.5869541345925839    
  0.6537262143383981    0.6535471305619756    0.5868351025772974    0.3711835056614729    0.19993129214763564    
  0.4449097915561026    0.3712412327870553    0.4456736753858313    0.586696518790733    0.6448600108009616    
  0.6417617372007207    0.6451568356787601    0.5868350688822027    0.4449097915561026    0.6326055306302802    
  0.5869541182707246    0.5866966271842239    0.632098964390147    0.6535631393367991    0.6421639916182734    
  0.6417616285526697    0.6535470896759402    0.6326055306302802    0.6621334416197815    0.6537261645354898    
  0.6448599819552348    0.6535631646967657    0.6627322310772401    0.6535631870913192    0.6448599711092203    
  0.6537261505256986    0.6621334416197815    0.6326055329593576    0.653547135044535    0.6417616529966127    
  0.6421640532369314    0.6535632175192828    0.6320989736975919    0.5866967062962641    0.5869541001171824    
  0.6326055329593576    0.44490976158974643    0.5868351131237719    0.6451567905923395    0.6417615838307583    
  0.6448599891549307    0.5866966758280288    0.44567362667766225    0.37124121737489246    0.44490976158974643    
  0.19993131247057777    0.3711835606406562    0.5868350109933725    0.6535471595798913    0.6537261865924839    
  0.5869541226629391    0.3712412602330884    0.19949303656066777    0.19993131247057777    0.11747795906947121    
  0.19993127578044673    0.44490978805984654    0.6326054387742904    0.6621333982444154    0.632605468888862    
  0.4449097184034274    0.19993129139201404    0.11747795906947121    0.0554437571845768    0.12348193236223252    
  0.3893186119820748    0.6545857270998199    0.7128396455376237    0.6545858367840948    0.3893185816458463    
  0.12348193791464807    0.0554437571845768    0.12348193145668168    0.1230860857031964    0.3007319905968987    
  0.5828263315493895    0.7004309525308341    0.7001809549533604    0.5826325352253077    0.3007011379164622    
  0.12348193145668168    0.3893185944170178    0.3007320125232917    0.39021076783389325    0.5824820354557295    
  0.6874743666171443    0.6969120631591589    0.6879428074978032    0.582632544148039    0.3893185944170178    
  0.6545858748623455    0.5828263116161388    0.582482098503009    0.6539424519961184    0.700187926858309    
  0.6975356965845141    0.6969120611700723    0.7001808557716821    0.6545858748623455    0.7128396384718285    
  0.700430873132908    0.6874743344241815    0.7001879479317794    0.7136393871310066    0.7001878914954052    
  0.6874744502153209    0.7004309446229685    0.7128396384718285    0.6545858404531242    0.7001809936814968    
  0.6969121060930618    0.697535692611466    0.700187936244599    0.653942439416033    0.5824821604854472    
  0.58282622197888    0.6545858404531242    0.38931863509938625    0.5826326172786108    0.6879427345712171    
  0.6969120281018029    0.6874743147676906    0.5824821176143645    0.39021072698755327    0.30073199430634334    
  0.38931863509938625    0.1234819450426898    0.30070119229717035    0.5826325656146875    0.7001809750032726    
  0.7004309416850292    0.5828263562568661    0.30073205913698803    0.12308605548659594    0.1234819450426898    
  0.0554437571845768    0.12348193236223252    0.3893186119820748    0.6545857270998199    0.7128396455376237    
  0.6545858367840948    0.3893185816458463    0.12348193791464807    0.0554437571845768    
  END_DATAGRID_3D    
  END_BLOCK_DATAGRID_3D    