#     DFTpy    
  CRYSTAL 
    
  PRIMVEC    
  1.2650896347847014    -2.191199523575858    0.0    
  1.2650896347847014    2.191199523575858    0.0    
  0.0    0.0    2.3813076868965517    
  PRIMCOORD    
  1    1    
  Si    0.0    0.0    0.0    
  BEGIN_BLOCK_DATAGRID_3D    
  3d_datagrid_density    
  BEGIN_DATAGRID_3D#0    
  11    11    11    
  0.0    0.0    0.0    
  1.2650896347847014    -2.191199523575858    0.0    
  1.2650896347847014    2.191199523575858    0.0    
  0.0    0.0    2.3813076868965517    
  0.05027234724551083    0.10093054108421227    0.27958898621648015    0.4223563360561885    0.4046880751291874    
  0.37766647020327404    0.4046880193128038    0.4223561943878108    0.2795889772825019    0.1009305570299499    
  0.05027234724551083    0.10093055312502494    0.10074057473086744    0.22253277045999276    0.39158157326991655    
  0.4178838615434914    0.37547299680496726    0.37556598833079013    0.41780922908114027    0.3914945584692694    
  0.22252751303521381    0.10093055312502494    0.27958900725664215    0.22253275760848668    0.2799835132668558    
  0.3914324758647558    0.4186534573756252    0.3721555052801833    0.3472729107245564    0.372129094603269    
  0.4188232213623034    0.3914945510405797    0.27958900725664215    0.4223562697784259    0.3915815140998016    
  0.39143252436186377    0.42209787528057596    0.4177830222431299    0.3723484338151945    0.3360252297420123    
  0.33611248113362974    0.3721291025531484    0.4178092339689936    0.4223562697784259    0.40468805173634553    
  0.417883765609957    0.41865341601478373    0.41778298833140265    0.40502745202190144    0.375513573651701    
  0.34712552494231586    0.33602517108313834    0.34727291859412057    0.3755660250592931    0.40468805173634553    
  0.37766648697058675    0.37547296390418794    0.37215552979632965    0.3723484519141334    0.37551354985793617    
  0.3773539505870419    0.3755135640873395    0.3723483911735152    0.3721555483647038    0.37547299323846756    
  0.37766648697058675    0.40468808209727536    0.3755660574798041    0.3472728962257224    0.33602521444796374    
  0.3471255396447638    0.3755136056826645    0.4050274304335357    0.4177830186300252    0.41865345636970963    
  0.41788386406601363    0.40468808209727536    0.42235631490602094    0.41780919963980895    0.37212908218750246    
  0.33611240988071794    0.3360251978477729    0.37234843139489915    0.4177830162266871    0.4220979470914741    
  0.3914325325770346    0.3915815038617179    0.42235631490602094    0.27958897585801734    0.39149460939889374    
  0.41882319773876686    0.3721290350772952    0.3472728815757973    0.37215550910716677    0.41865346585351954    
  0.3914325660364797    0.27998344698817945    0.22253278428044754    0.27958897585801734    0.10093053133756885    
  0.2225274386804751    0.39149452299626236    0.4178092395615938    0.3755660039717084    0.3754729981347269    
  0.4178838686915167    0.39158154749978064    0.2225328081276385    0.10074058275023087    0.10093053133756885    
  0.05027234724551083    0.10093054108421227    0.27958898621648015    0.4223563360561885    0.4046880751291874    
  0.37766647020327404    0.4046880193128038    0.4223561943878108    0.2795889772825019    0.1009305570299499    
  0.05027234724551083    0.0973154863068093    0.15687657363489704    0.3210383545778217    0.4148153534541798    
  0.3788263404848595    0.35058507734775524    0.37882631652052623    0.41481526318629314    0.32103833861977393    
  0.1568765741855921    0.0973154863068093    0.15687656090044885    0.1566535731132765    0.27375131989929646    
  0.4001615346840698    0.3957423748107408    0.34895440385674636    0.3490299490298299    0.3956750850161627    
  0.4001186848861412    0.2737164439782983    0.15687656090044885    0.3210383920735099    0.27375128225607664    
  0.3213899958373767    0.4000497493628875    0.3991667677146911    0.3465461687454944    0.3217894313238112    
  0.34653361311602776    0.39927389214647657    0.4001186388062005    0.3210383920735099    0.4148153386455764    
  0.4001615437848986    0.4000498070871624    0.41459854229152    0.39567053345313435    0.3466788683558796    
  0.31117882471069064    0.3112331662639239    0.3465336098298472    0.3956750928428433    0.4148153386455764    
  0.37882634501678725    0.39574237185380357    0.3991667759471304    0.3956704998049386    0.37908971088965826    
  0.3489851366401257    0.32169006599126343    0.3111787493064042    0.3217894670710379    0.3490299711787265    
  0.37882634501678725    0.35058510794177566    0.34895439385148924    0.34654620891456533    0.346678909023116    
  0.34898511107691393    0.3503456194651306    0.3489851177366688    0.3466788174161011    0.3465461780664117    
  0.3489543811735443    0.35058510794177566    0.3788263768099379    0.34902998704775845    0.32178944365103224    
  0.3111787588566038    0.32169006025127245    0.348985146664349    0.3790897111459039    0.3956704966348585    
  0.39916681352681943    0.39574242706716245    0.3788263768099379    0.41481534790413555    0.39567513161039547    
  0.3465336011077434    0.31123315715680006    0.31117879030435136    0.3466788899225163    0.39567053381467465    
  0.4145986108009294    0.4000497961516578    0.4001615012536287    0.41481534790413555    0.321038359781261    
  0.4001186254429037    0.39927387424820443    0.3465335855801505    0.32178942430490076    0.3465461980827679    
  0.3991667971107998    0.40004979975092597    0.32138997346037207    0.27375129730825243    0.321038359781261    
  0.1568765749825477    0.2737163983586542    0.40011863474824244    0.39567512346515477    0.34902996371405604    
  0.3489543955067192    0.3957424256416259    0.40016154367311424    0.2737513561493784    0.15665358360780915    
  0.1568765749825477    0.0973154863068093    0.15687657363489704    0.3210383545778217    0.4148153534541798    
  0.3788263404848595    0.35058507734775524    0.37882631652052623    0.41481526318629314    0.32103833861977393    
  0.1568765741855921    0.0973154863068093    0.28008661554745473    0.3266846638329862    0.3979862730999119    
  0.3810057963057366    0.31586324230044927    0.28726235990804944    0.31586323266112115    0.3810056963885519    
  0.3979862461867472    0.3266846836485239    0.28008661554745473    0.32668470131781696    0.3265338239914778    
  0.3845665046945125    0.3972855716077546    0.33760508360428626    0.28648116254479017    0.2865070764270077    
  0.3375784556058521    0.39728204544310136    0.38453189599233545    0.32668470131781696    0.3979863136664205    
  0.3845664100679425    0.39814740109775787    0.3972476709451125    0.3449569577515384    0.2852946459216991    
  0.2623305507832016    0.2852948133184505    0.34498128227752867    0.39728201826890414    0.3979863136664205    
  0.38100575512923446    0.39728557713816826    0.39724767563536934    0.3809186581665075    0.3375834162816309    
  0.28533306467047054    0.2532522892913636    0.2532641043431684    0.285294822622441    0.33757847347223474    
  0.38100575512923446    0.3158632358871167    0.337605058257037    0.3449569620361809    0.3375833472056523    
  0.3159567287363892    0.2864905829177692    0.26230250584680603    0.25325223001133135    0.26233053676900137    
  0.28650703548489975    0.3158632358871167    0.28726236676211525    0.28648117271261514    0.2852946804999225    
  0.28533308331248747    0.2864905115091842    0.2871783117550647    0.2864905085557455    0.2853330213932478    
  0.28529466013035354    0.2864811873191839    0.28726236676211525    0.31586328495560617    0.28650705820615624    
  0.2623305300648167    0.25325226857066774    0.2623025314836424    0.286490538845583    0.31595674454902045    
  0.3375833681062166    0.34495693143130235    0.33760511661865367    0.31586328495560617    0.3810057779411993    
  0.33757848194969486    0.285294848297938    0.2532640875949501    0.25325229644239683    0.2853330381537297    
  0.3375834000998424    0.3809187274935965    0.39724764838225046    0.3972855256083276    0.3810057779411993    
  0.3979862884336118    0.3972820117614717    0.34498127282559155    0.2852948537338137    0.26233056707114044    
  0.28529468082716775    0.3449569249176031    0.39724765908227083    0.39814739374686375    0.38456645063231526    
  0.3979862884336118    0.32668468474626416    0.3845318228620332    0.3972819892475575    0.33757852357473556    
  0.2865070718630208    0.28648115675715513    0.3376051030889655    0.39728560592578144    0.3845665122415554    
  0.3265338036030278    0.32668468474626416    0.28008661554745473    0.3266846638329862    0.3979862730999119    
  0.3810057963057366    0.31586324230044927    0.28726235990804944    0.31586323266112115    0.3810056963885519    
  0.3979862461867472    0.3266846836485239    0.28008661554745473    0.486614718946875    0.4742685878365338    
  0.4170023061987595    0.3225629197349803    0.24710107821016555    0.22086328966138408    0.24710107222225589    
  0.3225628270932137    0.41700228950949564    0.4742685954177899    0.486614718946875    0.47426858925816273    
  0.4742413420762062    0.4377146358070404    0.3561596983165716    0.26943181732023663    0.2207825031728945    
  0.22078624213501793    0.26942671895855613    0.35615829301374713    0.4377094521232823    0.47426858925816273    
  0.4170023414436818    0.4377145064853418    0.4170287464818347    0.3561558769166792    0.2781005714388489    
  0.22052182175725504    0.20079081425375334    0.22052223490236553    0.2781057465861494    0.35615825240813254    
  0.4170023414436818    0.3225628855263717    0.3561597018033049    0.3561558744754846    0.322549168292768    
  0.2694293302722884    0.22052741704058815    0.1934745127886699    0.19347442011699198    0.22052227575568106    
  0.269426727234121    0.3225628855263717    0.24710108071051515    0.26943178807313106    0.2781005696453774    
  0.26942928825192247    0.24711245808636484    0.22078373955957414    0.20078593614944792    0.19347447797178335    
  0.20079083636982592    0.22078619640133176    0.24710108071051515    0.22086328175384895    0.22078249965145857    
  0.22052183900466119    0.22052742169487416    0.22078369875373996    0.22085320142830356    0.2207836748534442    
  0.2205273874656693    0.220521792690749    0.22078249598856056    0.22086328175384895    0.24710112287062386    
  0.22078622045600946    0.20079081347411834    0.19347449345718004    0.20078597515951863    0.22078369080562524    
  0.24711246337605317    0.26942928135393085    0.2781005394775994    0.26943183554278305    0.24710112287062386    
  0.3225629210518069    0.269426736353467    0.2205222836070717    0.19347440545310346    0.19347451003216848    
  0.22052742339695228    0.2694293313143044    0.3225491918481809    0.3561558452724826    0.3561596412945671    
  0.3225629210518069    0.4170023575262857    0.35615827044636317    0.2781057717597679    0.220522272112238    
  0.20079084008103204    0.22052183656759167    0.27810055184653065    0.3561558640338165    0.4170286972955685    
  0.4377145566254784    0.4170023575262857    0.47426861376262314    0.43770935815985096    0.3561582392525417    
  0.2694267695203939    0.2207862347833022    0.22078247281061636    0.2694318330321998    0.3561596975790379    
  0.4377146083570975    0.4742413262899612    0.47426861376262314    0.486614718946875    0.4742685878365338    
  0.4170023061987595    0.3225629197349803    0.24710107821016555    0.22086328966138408    0.24710107222225589    
  0.3225628270932137    0.41700228950949564    0.4742685954177899    0.486614718946875    0.5344519188401905    
  0.4898303554474246    0.3822550618826459    0.2711355679966453    0.1991733537902641    0.1755950356203529    
  0.19917333169828955    0.2711355162614529    0.3822550299975715    0.4898304064196991    0.5344519188401905    
  0.48983038176196225    0.48983058025346654    0.41394700250076466    0.30679837244188785    0.22001533050165317    
  0.17605131409326963    0.17605091223217165    0.2200156484018536    0.3067925437826169    0.4139530165754702    
  0.48983038176196225    0.3822550972549084    0.4139469492711351    0.3822625218186233    0.3067916108466034    
  0.22840641622876315    0.17652339206050416    0.15924881688640619    0.17652345378995427    0.22840923181868536    
  0.30679252563009796    0.3822550972549084    0.2711355564621817    0.30679837548215877    0.30679168917775873    
  0.27113740824601124    0.22001643941141655    0.17652501741925877    0.15314163869878716    0.15314040946225513    
  0.17652346426072493    0.22001564562303202    0.2711355564621817    0.19917335838135625    0.22001532620582517    
  0.2284064113948069    0.22001640970484782    0.1991712252647904    0.17605197060404437    0.1592460329785611    
  0.15314160703726057    0.15924882184272365    0.1760509342027073    0.19917335838135625    0.17559504871415993    
  0.17605131363656312    0.17652339794820868    0.17652502500230333    0.17605194473162145    0.17559534046637665    
  0.1760519416449245    0.17652499812049946    0.1765233748161776    0.17605130636360766    0.17559504871415993    
  0.1991733486942871    0.17605092839293174    0.15924881956363737    0.15314161153804473    0.1592460332775607    
  0.17605196827109632    0.19917122705868096    0.22001642245800748    0.2284064069556316    0.22001535675574735    
  0.1991733486942871    0.27113557793171755    0.22001568403223354    0.17652343794456674    0.1531403931054743    
  0.15314162597038025    0.17652501613891883    0.22001641606796205    0.2711374473624523    0.30679168808734814    
  0.30679832782954897    0.27113557793171755    0.38225509745658126    0.30679254948337253    0.2284092400108835    
  0.17652342107289798    0.15924880380706993    0.17652338556088068    0.22840642289280325    0.3067917038748894    
  0.3822624841952545    0.41394696123761787    0.38225509745658126    0.48983039195210115    0.4139529551625209    
  0.3067925371073698    0.22001569716907524    0.17605091951252752    0.17605131829912984    0.22001536990925616    
  0.30679835951806245    0.41394703038011377    0.4898305671456574    0.48983039195210115    0.5344519188401905    
  0.4898303554474246    0.3822550618826459    0.2711355679966453    0.1991733537902641    0.1755950356203529    
  0.19917333169828955    0.2711355162614529    0.3822550299975715    0.4898304064196991    0.5344519188401905    
  0.5235245910412647    0.47424346238871584    0.36150860719620886    0.2517556661665479    0.18277912532571244    
  0.16028428889294474    0.18277908666696446    0.2517555776889469    0.3615085932412072    0.47424351953132265    
  0.5235245910412647    0.47424351499457595    0.47424705188863103    0.3939124771394188    0.2864220015306919    
  0.20279618435671673    0.16091108239038762    0.16090844276404134    0.20279868003075102    0.2864161089980224    
  0.3939199009890371    0.47424351499457595    0.3615086263193752    0.39391244486517957    0.3615115131081293    
  0.28641736175554927    0.2109139793782752    0.16162428630833528    0.14517774486446527    0.16162386439298054    
  0.21091600097215116    0.28641610579842897    0.3615086263193752    0.25175561312029365    0.28642195631889056    
  0.28641740139786737    0.25175945022932883    0.20279563388402802    0.16162860470966187    0.13944237521038003    
  0.1394469453169043    0.1616238630249149    0.2027986730735267    0.25175561312029365    0.18277909775800066    
  0.20279613890639953    0.21091395840303975    0.20279560482911888    0.1827795590469737    0.16090683972188777    
  0.14517864296859823    0.13944234508526515    0.1451777504291205    0.16090846855045882    0.18277909775800066    
  0.16028428465654845    0.1609110800936644    0.1616243012064711    0.1616285963159572    0.16090681524041114    
  0.16028982636319042    0.16090683611747852    0.16162856863591193    0.16162431050319112    0.16091108759153552    
  0.16028428465654845    0.18277910708851944    0.16090848171282476    0.14517774642965067    0.13944236279657496    
  0.14517865635160493    0.1609068673476569    0.18277954676076144    0.20279563395906522    0.21091399285937096    
  0.20279618639741262    0.18277910708851944    0.2517556458027111    0.20279864836453035    0.16162385828157538    
  0.1394468912250245    0.1394423609472572    0.1616286019672443    0.20279563532601094    0.2517595124096273    
  0.28641741275803356    0.28642194247160835    0.2517556458027111    0.3615086012804337    0.2864161609600498    
  0.21091598234529227    0.16162382574771897    0.14517773682566515    0.16162429224972338    0.21091398831898842    
  0.2864174416966186    0.361511438321141    0.3939124827267164    0.3615086012804337    0.4742434358580925    
  0.39391980173487884    0.2864160738832168    0.20279867497681273    0.1609084621400012    0.1609110961082434    
  0.20279619947369934    0.28642198727313806    0.3939125041966329    0.47424705845595583    0.4742434358580925    
  0.5235245910412647    0.47424346238871584    0.36150860719620886    0.2517556661665479    0.18277912532571244    
  0.16028428889294474    0.18277908666696446    0.2517555776889469    0.3615085932412072    0.47424351953132265    
  0.5235245910412647    0.5344519409596473    0.4898303841246127    0.38225507734493963    0.2711355773151194    
  0.19917336443922704    0.1755950264749842    0.19917333235474863    0.27113552379576955    0.3822550621423137    
  0.48983038982166033    0.5344519409596473    0.48983039381048565    0.4898305619337797    0.4139469911959144    
  0.306798364703967    0.22001533500977122    0.17605131403981988    0.17605089162070126    0.22001564541263108    
  0.306792561172007    0.41395301249072564    0.48983039381048565    0.3822551107788066    0.4139469472124361    
  0.3822625122338452    0.306791629570193    0.22840640161124862    0.1765233712486478    0.15924880440754471    
  0.176523455905616    0.22840925421301167    0.30679252019130526    0.3822551107788066    0.27113555243544657    
  0.3067983743716747    0.3067916748319893    0.2711373954142102    0.22001642824834244    0.17652502260983013    
  0.15314165004918587    0.1531404284080489    0.17652346044692788    0.22001564647257804    0.27113555243544657    
  0.19917334993955463    0.22001533192692108    0.22840641540815265    0.2200164021109616    0.19917123162168268    
  0.17605196570714451    0.1592460418811401    0.1531416018688154    0.159248819380989    0.17605090671113233    
  0.19917334993955463    0.17559504520641192    0.17605132361898    0.17652338589069588    0.17652503734073013    
  0.1760519429379528    0.175595331567128    0.17605194836027419    0.1765249878767286    0.17652336556025247    
  0.17605130295267563    0.17559504520641192    0.19917337309705402    0.17605091745631027    0.15924881829225232    
  0.15314160655668133    0.15924604109251347    0.17605196819942934    0.19917122976707607    0.2200164038675653    
  0.22840642520509244    0.220015346452049    0.19917337309705402    0.2711355697695151    0.22001567062113866    
  0.17652344627787386    0.15314040603680906    0.15314162038093987    0.17652503137756229    0.2200164334743297    
  0.2711374557396112    0.3067916630702182    0.30679833805298473    0.2711355697695151    0.38225507525327024    
  0.30679252170970167    0.22840924250628789    0.1765234242765107    0.15924880338264424    0.17652338492208644    
  0.22840642688498827    0.30679168275266705    0.38226248054631196    0.4139469672407573    0.38225507525327024    
  0.48983036707574035    0.413952975789219    0.3067925298237305    0.22001566619228044    0.17605090210005706    
  0.17605131643867267    0.22001535193584373    0.30679838151356414    0.41394704767884727    0.4898305898710822    
  0.48983036707574035    0.5344519409596473    0.4898303841246127    0.38225507734493963    0.2711355773151194    
  0.19917336443922704    0.1755950264749842    0.19917333235474863    0.27113552379576955    0.3822550621423137    
  0.48983038982166033    0.5344519409596473    0.48661469553521386    0.4742685728049028    0.4170023196694557    
  0.32256292049846796    0.24710107469620585    0.22086327465507463    0.24710106586899042    0.3225628394055612    
  0.41700229951636414    0.4742685950664182    0.48661469553521386    0.47426861875945736    0.47424133008036884    
  0.4377146015215525    0.35615969222649746    0.26943181610269784    0.2207824743328342    0.22078623952763443    
  0.26942670821894427    0.35615830726133835    0.4377094516222631    0.47426861875945736    0.41700234598785557    
  0.43771451730159283    0.41702871054612356    0.3561558808439625    0.2781005540095349    0.22052180505808758    
  0.20079082733805903    0.22052225644427886    0.2781057699856109    0.3561582573247976    0.41700234598785557    
  0.3225628787527358    0.3561596909058464    0.3561558804643134    0.322549148232216    0.26942933714862244    
  0.22052741819772018    0.19347451973004356    0.1934744430816289    0.2205222655916692    0.26942670968744636    
  0.3225628787527358    0.24710106279297656    0.2694317927487628    0.2781005615054066    0.26942928072688827    
  0.2471124610517622    0.22078373371805146    0.2007859523503716    0.19347447376304655    0.20079081672688734    
  0.22078621024694797    0.24710106279297656    0.22086328207145217    0.22078248955171845    0.22052184324938207    
  0.22052742779336215    0.22078367670040355    0.22085319721195995    0.22078366706113736    0.22052738000672703    
  0.22052180859033738    0.22078248757308438    0.22086328207145217    0.2471011106585661    0.22078622989681757    
  0.20079080845504046    0.19347450420769627    0.20078597145636048    0.2207836938251793    0.24711246747986954    
  0.26942928683808876    0.2781005233483933    0.2694318356382007    0.2471011106585661    0.32256291874560367    
  0.2694267311840603    0.22052228484073097    0.19347441633610374    0.1934745181648502    0.2205273846228036    
  0.2694293316159518    0.32254920555352457    0.35615585369490005    0.3561596354336833    0.32256291874560367    
  0.4170023209383199    0.3561582791018725    0.27810576284659644    0.22052228229776125    0.2007908354703296    
  0.22052183763019095    0.278100543863711    0.3561558672400826    0.4170286955042698    0.43771455842239015    
  0.4170023209383199    0.47426858635702374    0.4377093701165687    0.35615825120616146    0.2694267673761562    
  0.2207862452568671    0.22078246996756504    0.26943182068768406    0.35615971031711136    0.437714618883273    
  0.4742413184250706    0.47426858635702374    0.48661469553521386    0.4742685728049028    0.4170023196694557    
  0.32256292049846796    0.24710107469620585    0.22086327465507463    0.24710106586899042    0.3225628394055612    
  0.41700229951636414    0.4742685950664182    0.48661469553521386    0.28008663220979957    0.32668467285870956    
  0.39798627160181843    0.38100579984077115    0.3158632464603111    0.28726237707782826    0.3158632187513025    
  0.381005691175524    0.39798625960013034    0.32668468096559033    0.28008663220979957    0.32668467400368206    
  0.32653382273834497    0.38456650990709595    0.39728559749703274    0.3376050861539525    0.2864811968425214    
  0.2865070846436336    0.33757846597773106    0.39728203628068953    0.38453190186904945    0.32668467400368206    
  0.3979863124809455    0.38456640867964714    0.39814742286522986    0.39724765226284764    0.34495697096972594    
  0.2852946647544361    0.2623305412614279    0.28529479844375527    0.34498126577985455    0.3972819901508483    
  0.3979863124809455    0.3810057612034634    0.3972855950552303    0.39724765714768406    0.3809186882228041    
  0.33758339918396496    0.28533306616309734    0.2532522896467588    0.253264090016197    0.2852948408854488    
  0.337578487824918    0.3810057612034634    0.31586324159571355    0.33760505525357953    0.3449569575654819    
  0.3375833622796433    0.31595673249420586    0.28649059845758773    0.2623024952864815    0.25325223906243644    
  0.26233055948292927    0.28650702283979296    0.31586324159571355    0.2872623675723092    0.28648118778073184    
  0.285294676005733    0.28533308141105423    0.2864905459795817    0.2871783048382706    0.28649051280908294    
  0.28533302524675    0.28529462197151745    0.2864811811325612    0.2872623675723092    0.31586330938959917    
  0.28650705510443947    0.2623305281802715    0.25325226650077975    0.2623025329911035    0.28649052839107975    
  0.31595673111920736    0.33758335644886367    0.34495690970941195    0.33760510874686567    0.31586330938959917    
  0.38100579736496537    0.3375784954856664    0.28529484323661947    0.25326407420301755    0.25325228172971825    
  0.285333064958493    0.33758341671510367    0.38091870179347365    0.3972476254679221    0.39728553104675596    
  0.38100579736496537    0.3979863069353452    0.39728201535779467    0.344981299098152    0.2852948278554434    
  0.26233056185523446    0.285294687156321    0.34495694176362635    0.39724765684799274    0.39814738181556225    
  0.3845664701071486    0.3979863069353452    0.326684697290821    0.38453181526063274    0.39728199228590144    
  0.3375785278714371    0.2865070703613044    0.28648116492198217    0.3376051137036515    0.39728559231801164    
  0.38456652073653647    0.3265338025428649    0.326684697290821    0.28008663220979957    0.32668467285870956    
  0.39798627160181843    0.38100579984077115    0.3158632464603111    0.28726237707782826    0.3158632187513025    
  0.381005691175524    0.39798625960013034    0.32668468096559033    0.28008663220979957    0.09731548436368578    
  0.15687656005146414    0.3210383527887689    0.41481535131516617    0.37882633040037417    0.350585087820062    
  0.3788263005660616    0.41481526126616103    0.3210383221749635    0.15687657277055897    0.09731548436368578    
  0.15687656410305656    0.15665357598135476    0.2737513251985858    0.40016153569868534    0.395742383145451    
  0.34895440549460693    0.3490299758282816    0.3956750932737078    0.4001186615142568    0.27371644416299673    
  0.15687656410305656    0.32103838979812055    0.27375129284841193    0.321390001471939    0.4000497306777952    
  0.39916677416430596    0.3465462105711687    0.321789451892157    0.3465336148144433    0.39927387386206004    
  0.4001186401158206    0.32103838979812055    0.4148153307547105    0.4001615348466377    0.4000498036994667    
  0.4145985525928973    0.3956705429386852    0.34667885958928224    0.31117881179687595    0.3112331460270849    
  0.34653362397768805    0.39567509349907154    0.4148153307547105    0.37882634727907766    0.39574236134337043    
  0.3991667660475114    0.39567050347411503    0.3790896943098521    0.34898515118539786    0.3216900426745451    
  0.3111787593488628    0.32178945770438283    0.34902999232271514    0.37882634727907766    0.3505851043479929    
  0.34895438213700974    0.34654621411301645    0.3466788928302867    0.34898512261039455    0.3503456287729396    
  0.3489850943720201    0.34667882563576774    0.34654616959202766    0.34895438883239116    0.3505851043479929    
  0.378826348826003    0.3490299995598151    0.32178944382068525    0.3111787789252898    0.3216900456722085    
  0.3489851384779567    0.37908969803394466    0.3956705055472774    0.39916676431539083    0.3957424213000481    
  0.378826348826003    0.4148153637685721    0.3956751374704695    0.34653359494311503    0.3112331311087611    
  0.31117879683667615    0.34667885901361717    0.395670519502475    0.4145985940265013    0.4000498091355699    
  0.4001614954279893    0.4148153637685721    0.32103837044189953    0.4001186622167827    0.39927387228268213    
  0.3465335569369162    0.32178941825175256    0.34654619427876177    0.39916680847972263    0.40004982452113647    
  0.32138998054997153    0.27375129459983283    0.32103837044189953    0.15687657813092434    0.27371639997345093    
  0.40011866257367024    0.39567515426571587    0.34902997757911286    0.3489543998973792    0.39574243883379806    
  0.4001615275012734    0.27375135135672574    0.1566535718727977    0.15687657813092434    0.09731548436368578    
  0.15687656005146414    0.3210383527887689    0.41481535131516617    0.37882633040037417    0.350585087820062    
  0.3788263005660616    0.41481526126616103    0.3210383221749635    0.15687657277055897    0.09731548436368578    
  0.05027234724551083    0.10093054108421227    0.27958898621648015    0.4223563360561885    0.4046880751291874    
  0.37766647020327404    0.4046880193128038    0.4223561943878108    0.2795889772825019    0.1009305570299499    
  0.05027234724551083    0.10093055312502494    0.10074057473086744    0.22253277045999276    0.39158157326991655    
  0.4178838615434914    0.37547299680496726    0.37556598833079013    0.41780922908114027    0.3914945584692694    
  0.22252751303521381    0.10093055312502494    0.27958900725664215    0.22253275760848668    0.2799835132668558    
  0.3914324758647558    0.4186534573756252    0.3721555052801833    0.3472729107245564    0.372129094603269    
  0.4188232213623034    0.3914945510405797    0.27958900725664215    0.4223562697784259    0.3915815140998016    
  0.39143252436186377    0.42209787528057596    0.4177830222431299    0.3723484338151945    0.3360252297420123    
  0.33611248113362974    0.3721291025531484    0.4178092339689936    0.4223562697784259    0.40468805173634553    
  0.417883765609957    0.41865341601478373    0.41778298833140265    0.40502745202190144    0.375513573651701    
  0.34712552494231586    0.33602517108313834    0.34727291859412057    0.3755660250592931    0.40468805173634553    
  0.37766648697058675    0.37547296390418794    0.37215552979632965    0.3723484519141334    0.37551354985793617    
  0.3773539505870419    0.3755135640873395    0.3723483911735152    0.3721555483647038    0.37547299323846756    
  0.37766648697058675    0.40468808209727536    0.3755660574798041    0.3472728962257224    0.33602521444796374    
  0.3471255396447638    0.3755136056826645    0.4050274304335357    0.4177830186300252    0.41865345636970963    
  0.41788386406601363    0.40468808209727536    0.42235631490602094    0.41780919963980895    0.37212908218750246    
  0.33611240988071794    0.3360251978477729    0.37234843139489915    0.4177830162266871    0.4220979470914741    
  0.3914325325770346    0.3915815038617179    0.42235631490602094    0.27958897585801734    0.39149460939889374    
  0.41882319773876686    0.3721290350772952    0.3472728815757973    0.37215550910716677    0.41865346585351954    
  0.3914325660364797    0.27998344698817945    0.22253278428044754    0.27958897585801734    0.10093053133756885    
  0.2225274386804751    0.39149452299626236    0.4178092395615938    0.3755660039717084    0.3754729981347269    
  0.4178838686915167    0.39158154749978064    0.2225328081276385    0.10074058275023087    0.10093053133756885    
  0.05027234724551083    0.10093054108421227    0.27958898621648015    0.4223563360561885    0.4046880751291874    
  0.37766647020327404    0.4046880193128038    0.4223561943878108    0.2795889772825019    0.1009305570299499    
  0.05027234724551083    
  END_DATAGRID_3D    
  END_BLOCK_DATAGRID_3D    