#     DFTpy    
  CRYSTAL 
    
  PRIMVEC    
  1.0753261895669963    -1.8625195950394795    0.0    
  1.0753261895669963    1.8625195950394795    0.0    
  0.0    0.0    2.024111533862069    
  PRIMCOORD    
  1    1    
  Si    0.0    0.0    0.0    
  BEGIN_BLOCK_DATAGRID_3D    
  3d_datagrid_density    
  BEGIN_DATAGRID_3D#0    
  11    11    9    
  0.0    0.0    0.0    
  1.0753261895669963    -1.8625195950394795    0.0    
  1.0753261895669963    1.8625195950394795    0.0    
  0.0    0.0    2.024111533862069    
  0.053394067843323956    0.09371068336477816    0.2575666505315256    0.5033790061419159    0.6375366059052371    
  0.6603748844671885    0.637536653422459    0.5033789925338136    0.25756659958894873    0.09371068716301577    
  0.053394067843323956    0.09371063849908139    0.09374996258373777    0.19914164170337909    0.4197199800181834    
  0.6009256832892772    0.652829369166985    0.6528114646125902    0.6009544292974341    0.4196885444081065    
  0.19917361835837522    0.09371063849908139    0.25756659641763363    0.19914164989088734    0.2575226827921498    
  0.4197172290668336    0.5809094973007545    0.640478148563293    0.6449010327807465    0.6404609804966285    
  0.580927173216852    0.4196885403193371    0.25756659641763363    0.5033789381415066    0.41971991754383714    
  0.41971725661514386    0.5034346751465973    0.6009259746937506    0.6404764075040992    0.6380623573490877    
  0.6380856665303163    0.6404610259363482    0.600954476270504    0.5033789381415066    0.6375365883508602    
  0.6009255852521775    0.5809095106077797    0.6009259902080658    0.6374907641908649    0.6528277993706141    
  0.6448990582802002    0.6380623976341516    0.6449010110776017    0.6528114813747495    0.6375365883508602    
  0.6603748888500722    0.6528294125619964    0.6404782671957067    0.6404764519945292    0.6528278381589043    
  0.6604097514426063    0.6528277417351012    0.6404764672801568    0.6404781979840447    0.6528294193431223    
  0.6603748888500722    0.6375365450339135    0.6528114738007597    0.6449011346197658    0.638062326191193    
  0.6448991314287897    0.6528276973683005    0.6374907546839    0.6009260147931609    0.5809094712102113    
  0.6009256188812461    0.6375365450339135    0.5033789929605486    0.6009544017062777    0.6404608799476326    
  0.6380856795669252    0.6380623477123099    0.6404764589183073    0.6009260353279047    0.5034346315649616    
  0.41971727489860244    0.41972003063869706    0.5033789929605486    0.2575665902041621    0.4196884715800418    
  0.5809272350921215    0.6404608944773237    0.6449010183968864    0.6404781284211876    0.5809095674746205    
  0.4197172328743196    0.257522684241553    0.19914166431423397    0.2575665902041621    0.09371063620525309    
  0.19917363331374208    0.41968851278113867    0.6009544091923378    0.652811397616064    0.6528293894634394    
  0.6009256559580755    0.4197199160585622    0.19914164425177097    0.0937499471658263    0.09371063620525309    
  0.053394067843323956    0.09371068336477816    0.2575666505315256    0.5033790061419159    0.6375366059052371    
  0.6603748844671885    0.637536653422459    0.5033789925338136    0.25756659958894873    0.09371068716301577    
  0.053394067843323956    0.116232294209894    0.16724022394916074    0.33098146244162946    0.5219466276244688    
  0.602172996767366    0.6097728333866718    0.6021729601143136    0.5219466647421817    0.3309814263683989    
  0.16724023483097977    0.116232294209894    0.167240206495325    0.16725193761133625    0.2775359360878832    
  0.4621771281709013    0.5824146894190297    0.6045113183443146    0.6045090010968625    0.5824228878595978    
  0.46215944322996855    0.27755013620973723    0.167240206495325    0.33098137194937177    0.2775358940567651    
  0.33097443251531694    0.4621671044075606    0.5701931507904281    0.5958088164547367    0.5916641201845143    
  0.5958002968034875    0.5702088302670555    0.46215949168986215    0.33098137194937177    0.5219465782215819    
  0.4621771602877576    0.4621671097440163    0.5219666738335659    0.5824093181264648    0.5958221687339404    
  0.5838941782785079    0.5839126533551943    0.5958003068717651    0.5824228670729692    0.5219465782215819    
  0.6021728654900973    0.5824146543306433    0.5701931217178412    0.5824092982489055    0.60216621775335    
  0.6045104950811389    0.5916557622673044    0.5838941463015482    0.5916641118312813    0.6045090134523533    
  0.6021728654900973    0.6097728200320787    0.6045113400475444    0.5958089382448336    0.5958221829079638    
  0.6045105399452328    0.6097800184617103    0.6045105080050421    0.5958222148894695    0.5958088976319794    
  0.6045113915642044    0.6097728200320787    0.6021729190900844    0.6045089635190167    0.5916641305226218    
  0.5838940786289368    0.5916557434421889    0.6045104258543503    0.6021661750374595    0.5824093243225951    
  0.570193080731491    0.58241467092623    0.6021729190900844    0.5219466011571021    0.582422800280544    
  0.5958002494289333    0.5839127462242804    0.5838941353769419    0.5958222115333506    0.5824092992919957    
  0.5219667005683722    0.46216713354950634    0.46217726511572704    0.5219466011571021    0.3309813786723248    
  0.46215941730039883    0.5702089181273342    0.5958002682885413    0.5916641656050027    0.5958087993074466    
  0.5701931468869956    0.4621671420508343    0.33097444352458494    0.2775359407050505    0.3309813786723248    
  0.1672401867152785    0.2775501308721352    0.4621594252296025    0.5824229046471392    0.6045089058363591    
  0.604511387432801    0.5824146775623145    0.46217722321453153    0.27753593130937915    0.1672519446707744    
  0.1672401867152785    0.116232294209894    0.16724022394916074    0.33098146244162946    0.5219466276244688    
  0.602172996767366    0.6097728333866718    0.6021729601143136    0.5219466647421817    0.3309814263683989    
  0.16724023483097977    0.116232294209894    0.38124762140795593    0.4207087342508288    0.5005558717260227    
  0.5371877310062038    0.5159880723303896    0.4982304544241059    0.5159880856295883    0.537187765086988    
  0.5005557946471383    0.42070879544884554    0.38124762140795593    0.4207086597712369    0.4206978972901707    
  0.4800293642903402    0.5319768564877386    0.5252211251775704    0.49635075904164394    0.4963551074311237    
  0.52521883773424    0.5319737283567342    0.4800308636070086    0.4207086597712369    0.5005557752311083    
  0.48002936476178176    0.5005681752200125    0.5319753355395667    0.5267739194614839    0.49306820047239774    
  0.47507770556428025    0.4930642673869804    0.5267820323627638    0.5319737820667431    0.5005557752311083    
  0.5371876837044044    0.5319768327444513    0.5319753718808086    0.5371779141296059    0.5252169016571596    
  0.4930739546926329    0.46576872678094317    0.46577740019845715    0.49306433366371505    0.5252188959602233    
  0.5371876837044044    0.5159880395631963    0.5252210543044704    0.5267739549294808    0.5252168754867015    
  0.516002542372095    0.49635081407285525    0.4750760340824524    0.465768703737538    0.4750777008252071    
  0.49635513846741613    0.5159880395631963    0.49823041240841764    0.49635077369769864    0.49306827570140366    
  0.49307394725441284    0.4963508638563164    0.4982204437706834    0.4963507899843491    0.4930739896981788    
  0.49306821742739454    0.49635074787750705    0.49823041240841764    0.515988007863642    0.49635510105882824    
  0.4750777772448376    0.46576868086656453    0.4750761256659    0.4963507892688091    0.5160025236855182    
  0.525216992501196    0.5267738992341902    0.5252211163914006    0.515988007863642    0.5371877142851068    
  0.5252188454281328    0.49306423704583474    0.4657774371975896    0.4657686606160053    0.4930739469060228    
  0.5252169610741588    0.5371779093064352    0.5319753402632172    0.5319769415179034    0.5371877142851068    
  0.5005557488988098    0.5319736712246403    0.5267820724119647    0.49306423354253764    0.4750777471678832    
  0.49306812133713784    0.526773961286206    0.5319753581974882    0.500568199022858    0.4800294349762516    
  0.5005557488988098    0.42070868500572556    0.4800309010814562    0.5319736592458465    0.5252188725298912    
  0.49635504648102396    0.49635071524989766    0.5252210591953921    0.5319768739187839    0.4800293792512849    
  0.42069787605602144    0.42070868500572556    0.38124762140795593    0.4207087342508288    0.5005558717260227    
  0.5371877310062038    0.5159880723303896    0.4982304544241059    0.5159880856295883    0.537187765086988    
  0.5005557946471383    0.42070879544884554    0.38124762140795593    0.6989036504475424    0.6764273857622854    
  0.6076939215159137    0.5113660205109498    0.4315366797340417    0.40173224965145565    0.4315367027295618    
  0.5113661171955494    0.607693902714657    0.6764274513037326    0.6989036504475424    0.6764272638076343    
  0.6764181835944526    0.6300333269739639    0.544796583084721    0.4552772519020941    0.4010550035667977    
  0.40105601224711124    0.45527482766995353    0.5447986349975943    0.6300308795837932    0.6764272638076343    
  0.6076938330997753    0.6300332334680152    0.6076990067014725    0.5447988184317075    0.4638223324757429    
  0.39969653608329314    0.37603154070451056    0.399698097169758    0.4638225241947286    0.5447987064943658    
  0.6076938330997753    0.5113659768265246    0.5447966065344335    0.5447988451645253    0.5113620948301463    
  0.4552732287989347    0.39970095871336087    0.36632280164748504    0.3663229188030943    0.39969809056761646    
  0.4552748295476737    0.5113659768265246    0.43153661063702814    0.4552772324127602    0.46382227091999806    
  0.4552732230662895    0.43154293391297605    0.40105525548622484    0.3760291933539167    0.36632275342056403    
  0.37603154326584226    0.4010560433213278    0.43153661063702814    0.40173226596505196    0.4010549887637177    
  0.39969661216604047    0.39970095217779356    0.4010552593814488    0.401727853968779    0.4010552179495634    
  0.3997009606336274    0.39969659309317407    0.4010549924751541    0.40173226596505196    0.43153667405257545    
  0.4010560210215792    0.37603156557145573    0.3663227188538655    0.37602925109121604    0.40105515105313894    
  0.43154292845562736    0.45527323582390344    0.46382223141220696    0.45527728550661917    0.43153667405257545    
  0.5113660765937222    0.45527477317516174    0.3996980939662087    0.3663230029103308    0.3663227593942531    
  0.3997009765512435    0.4552732358455185    0.5113620839483733    0.5447987510596964    0.5447966700731719    
  0.5113660765937222    0.6076937628035488    0.5447986069797454    0.463822602778282    0.39969805383264206    
  0.3760315739749214    0.3996965215863812    0.46382229722547796    0.5447987710182096    0.6076990485379011    
  0.6300332945249957    0.6076937628035488    0.6764272982925427    0.6300308778418654    0.5447986443230193    
  0.45527482666282915    0.40105595958539314    0.40105499375009845    0.4552772206882131    0.5447966402911647    
  0.6300332854561441    0.6764181933844091    0.6764272982925427    0.6989036504475424    0.6764273857622854    
  0.6076939215159137    0.5113660205109498    0.4315366797340417    0.40173224965145565    0.4315367027295618    
  0.5113661171955494    0.607693902714657    0.6764274513037326    0.6989036504475424    0.7994034502279678    
  0.7485294732646182    0.624390958717482    0.4904133194969197    0.39786142649332407    0.3660776100274993    
  0.3978614557633241    0.4904133279022614    0.6243908396891532    0.7485295083317022    0.7994034502279678    
  0.7485293322965615    0.7485205645251645    0.6610944968238228    0.533514209218393    0.4241618012719403    
  0.36546254056251526    0.3654638405220225    0.4241579760381176    0.5335133077028328    0.6610952290410695    
  0.7485293322965615    0.6243908343026506    0.6610944703869842    0.6244004231938101    0.5335108113699053    
  0.43390078794924003    0.3642295335157496    0.3400805671125977    0.36423300201256015    0.4339033490542673    
  0.5335133493112343    0.6243908343026506    0.4904132738942194    0.5335141571800432    0.5335108498145661    
  0.49040962538497335    0.4241622933614112    0.36423247328089997    0.33055435873990796    0.330545865343571    
  0.36423305703585435    0.4241580129970812    0.4904132738942194    0.397861422185696    0.424161729760696    
  0.4339008106138584    0.4241622996417807    0.39785948889214057    0.3654659069901949    0.34007318458773717    
  0.3305543659893123    0.3400805586906817    0.3654638670278103    0.397861422185696    0.36607759093368886    
  0.3654625821238935    0.36422961179012703    0.36423248661443014    0.3654659408965231    0.3660746087119818    
  0.3654658667435929    0.3642325015491186    0.3642295652633477    0.36546258924562924    0.36607759093368886    
  0.3978613830676294    0.3654638716913476    0.3400806282324811    0.3305543203582155    0.34007323741046064    
  0.36546582219428986    0.3978594751994839    0.424162320546627    0.4339007918609134    0.4241617840276153    
  0.3978613830676294    0.4904133167580463    0.42415798575583774    0.3642329614172324    0.33054586065226144    
  0.3305543380977157    0.3642324942389475    0.42416234656856405    0.49040959511309545    0.533510866083445    
  0.5335142986531451    0.4904133167580463    0.6243908318273744    0.5335132680720076    0.43390341275340033    
  0.36423295391765587    0.34008055934679954    0.364229493604662    0.4339008590090529    0.533510830578113    
  0.6244004443697609    0.6610944944140635    0.6243908318273744    0.7485293533956463    0.6610952494899176    
  0.5335133016449263    0.4241579596634646    0.36546378491656023    0.3654625544579927    0.42416178276999605    
  0.5335141431803365    0.6610944311106997    0.7485205530982502    0.7485293533956463    0.7994034502279678    
  0.7485294732646182    0.624390958717482    0.4904133194969197    0.39786142649332407    0.3660776100274993    
  0.3978614557633241    0.4904133279022614    0.6243908396891532    0.7485295083317022    0.7994034502279678    
  0.698903667448038    0.6764273937616906    0.6076939470392637    0.5113660472221296    0.43153669394882654    
  0.4017322546859545    0.4315366693965689    0.5113660716476286    0.6076939037380665    0.676427444061071    
  0.698903667448038    0.6764273052377736    0.6764182269352476    0.6300333310900249    0.5447965514327964    
  0.45527725038334227    0.40105496378833094    0.40105601597715834    0.4552748432706218    0.5447986405209689    
  0.6300308906037347    0.6764273052377736    0.6076938146946338    0.6300332716033771    0.6076990188993678    
  0.5447987976267641    0.4638223181838836    0.3996965298893123    0.37603153901102293    0.3996980840195918    
  0.46382251780550615    0.544798710543169    0.6076938146946338    0.5113659953102377    0.5447966006202561    
  0.5447988239690864    0.5113620708044951    0.4552732137912538    0.39970094462203415    0.3663227824196612    
  0.3663229272094593    0.3996981109555708    0.45527483184409245    0.5113659953102377    0.43153659453073    
  0.45527723268770526    0.46382227168257195    0.45527321761441664    0.4315429197019926    0.40105523122859504    
  0.3760292248106003    0.3663227436839099    0.3760315433441818    0.4010560431601481    0.43153659453073    
  0.4017322422491099    0.40105497434023274    0.3996966273112154    0.39970094878407186    0.40105526456369195    
  0.4017278011251853    0.4010552308823137    0.3997009708162031    0.3996965912545099    0.40105501991868214    
  0.4017322422491099    0.43153665114236617    0.40105602120568634    0.37603155640518504    0.3663227003785011    
  0.37602921528480104    0.4010551535524665    0.43154289642801674    0.45527322219724053    0.46382226333605037    
  0.4552772687973413    0.43153665114236617    0.511366031465461    0.45527477726969356    0.39969805808840037    
  0.3663229910825968    0.3663227450394797    0.3997009667623265    0.45527321552972616    0.5113620958477434    
  0.5447988261080363    0.5447967000913766    0.511366031465461    0.6076938390564286    0.5447986171996041    
  0.46382260626266925    0.3996980668146607    0.37603156991196734    0.39969652689262913    0.4638223090389151    
  0.5447988409615896    0.6076989859641453    0.6300333108752896    0.6076938390564286    0.676427311624137    
  0.6300308522831346    0.5447986483593935    0.45527483945084607    0.4010559532158135    0.40105501664787413    
  0.45527723574809636    0.5447966530887254    0.6300332822085831    0.676418203497139    0.676427311624137    
  0.698903667448038    0.6764273937616906    0.6076939470392637    0.5113660472221296    0.43153669394882654    
  0.4017322546859545    0.4315366693965689    0.5113660716476286    0.6076939037380665    0.676427444061071    
  0.698903667448038    0.38124762587948136    0.420708739975465    0.500555879754092    0.5371877392754959    
  0.5159880794327018    0.49823044818108214    0.5159880732965196    0.5371877658631156    0.5005557947444723    
  0.42070879660107346    0.38124762587948136    0.4207086654319434    0.4206979033430371    0.4800293761549264    
  0.5319768567603134    0.5252211260425419    0.4963507459816708    0.49635509969966735    0.5252188323912198    
  0.5319737296997366    0.48003086216412055    0.4207086654319434    0.5005557751457393    0.48002938654942073    
  0.5005681846721829    0.531975353121575    0.5267739374682054    0.493068191824128    0.4750776940407124    
  0.4930642813440558    0.5267820243871718    0.5319737916579462    0.5005557751457393    0.5371876838893296    
  0.5319768300139083    0.5319753806904799    0.5371779224638247    0.5252169045990757    0.49307394635197777    
  0.4657687200764065    0.4657773882334099    0.4930643338236617    0.5252189037989151    0.5371876838893296    
  0.5159880402563932    0.5252210792472036    0.5267739588293606    0.5252169035593623    0.516002541389923    
  0.49635079667428994    0.4750760407208251    0.4657686996708618    0.4750776929276094    0.4963551371574384    
  0.5159880402563932    0.49823042734145934    0.49635076721876553    0.49306828576487866    0.49307395214699945    
  0.4963508630153847    0.49822043692516566    0.49635079614254735    0.4930739770228747    0.4930681979452569    
  0.4963507714007913    0.49823042734145934    0.5159880078996246    0.4963551207665252    0.47507777476044666    
  0.46576868462465104    0.4750761348262393    0.49635079481403516    0.5160025247774109    0.5252169667910208    
  0.5267738825295858    0.5252211067854018    0.5159880078996246    0.5371877262057766    0.5252188469884276    
  0.49306424128353904    0.465777429020231    0.4657686468672049    0.49307396286123284    0.5252169574186527    
  0.5371778955911473    0.5319753304122188    0.5319769273418457    0.5371877262057766    0.5005557417048752    
  0.5319736544666802    0.526782088889731    0.49306423171783986    0.47507775373604333    0.4930681228879985    
  0.5267739620801224    0.5319753621809239    0.5005681906059384    0.480029423655644    0.5005557417048752    
  0.42070869083374984    0.48003089409314614    0.5319736631183043    0.5252188626003562    0.49635503434183853    
  0.4963507368728979    0.5252210657456089    0.531976871074678    0.4800293611786529    0.4206978851093864    
  0.42070869083374984    0.38124762587948136    0.420708739975465    0.500555879754092    0.5371877392754959    
  0.5159880794327018    0.49823044818108214    0.5159880732965196    0.5371877658631156    0.5005557947444723    
  0.42070879660107346    0.38124762587948136    0.11623230775823709    0.167240227162587    0.3309814600801363    
  0.5219466063803329    0.6021729861060616    0.6097728117235376    0.6021729965426573    0.5219466914905774    
  0.3309814382039501    0.1672402421658826    0.11623230775823709    0.16724018668077686    0.16725193726274223    
  0.27753592668678395    0.4621771660446314    0.5824146770064001    0.6045113778065115    0.6045089749635237    
  0.582422884766168    0.46215943825877026    0.2775501406181617    0.16724018668077686    0.33098139736803817    
  0.2775358946490491    0.33097444309357993    0.46216711819329487    0.5701931783999895    0.5958088060676875    
  0.591664111703938    0.5958003074108427    0.5702088443973808    0.4621594787959792    0.33098139736803817    
  0.5219465698495929    0.462177177692413    0.46216713359313866    0.5219666932887126    0.5824093054212087    
  0.5958221817849881    0.5838941980289973    0.5839126405058518    0.5958002851605798    0.5824228807677321    
  0.5219465698495929    0.6021728780171006    0.5824146523757401    0.5701931003937144    0.5824092959444085    
  0.6021662058326003    0.6045105286431705    0.591655727271708    0.5838941475107953    0.5916641153858957    
  0.6045090005510084    0.6021728780171006    0.6097728508542952    0.6045113548945159    0.5958089121952633    
  0.5958221895941106    0.6045105576675585    0.6097800659216208    0.6045104855467655    0.5958221908735738    
  0.5958088780630454    0.6045113576489223    0.6097728508542952    0.6021729552827785    0.604508963873467    
  0.5916641702440212    0.5838941328860436    0.5916557988282499    0.6045104108561327    0.6021661925990591    
  0.5824093107072305    0.57019304075019    0.5824146836942589    0.6021729552827785    0.5219466450681508    
  0.5824227901456551    0.5958002864991252    0.5839127708916007    0.58389415459239    0.5958222268768669    
  0.5824093288457171    0.5219666725658179    0.46216705719696766    0.4621772308186386    0.5219466450681508    
  0.33098134965144926    0.4621594056317632    0.5702089130538683    0.5958002656118132    0.5916641704447176    
  0.5958088081032766    0.57019312689923    0.462167068434166    0.330974474979965    0.27753591709163716    
  0.33098134965144926    0.16724019226944936    0.2775501411069777    0.46215944454570734    0.5824228894320521    
  0.6045089097116314    0.6045113800268155    0.582414629766517    0.46217722400438527    0.27753591521933846    
  0.16725193492101756    0.16724019226944936    0.11623230775823709    0.167240227162587    0.3309814600801363    
  0.5219466063803329    0.6021729861060616    0.6097728117235376    0.6021729965426573    0.5219466914905774    
  0.3309814382039501    0.1672402421658826    0.11623230775823709    0.053394067843323956    0.09371068336477816    
  0.2575666505315256    0.5033790061419159    0.6375366059052371    0.6603748844671885    0.637536653422459    
  0.5033789925338136    0.25756659958894873    0.09371068716301577    0.053394067843323956    0.09371063849908139    
  0.09374996258373777    0.19914164170337909    0.4197199800181834    0.6009256832892772    0.652829369166985    
  0.6528114646125902    0.6009544292974341    0.4196885444081065    0.19917361835837522    0.09371063849908139    
  0.25756659641763363    0.19914164989088734    0.2575226827921498    0.4197172290668336    0.5809094973007545    
  0.640478148563293    0.6449010327807465    0.6404609804966285    0.580927173216852    0.4196885403193371    
  0.25756659641763363    0.5033789381415066    0.41971991754383714    0.41971725661514386    0.5034346751465973    
  0.6009259746937506    0.6404764075040992    0.6380623573490877    0.6380856665303163    0.6404610259363482    
  0.600954476270504    0.5033789381415066    0.6375365883508602    0.6009255852521775    0.5809095106077797    
  0.6009259902080658    0.6374907641908649    0.6528277993706141    0.6448990582802002    0.6380623976341516    
  0.6449010110776017    0.6528114813747495    0.6375365883508602    0.6603748888500722    0.6528294125619964    
  0.6404782671957067    0.6404764519945292    0.6528278381589043    0.6604097514426063    0.6528277417351012    
  0.6404764672801568    0.6404781979840447    0.6528294193431223    0.6603748888500722    0.6375365450339135    
  0.6528114738007597    0.6449011346197658    0.638062326191193    0.6448991314287897    0.6528276973683005    
  0.6374907546839    0.6009260147931609    0.5809094712102113    0.6009256188812461    0.6375365450339135    
  0.5033789929605486    0.6009544017062777    0.6404608799476326    0.6380856795669252    0.6380623477123099    
  0.6404764589183073    0.6009260353279047    0.5034346315649616    0.41971727489860244    0.41972003063869706    
  0.5033789929605486    0.2575665902041621    0.4196884715800418    0.5809272350921215    0.6404608944773237    
  0.6449010183968864    0.6404781284211876    0.5809095674746205    0.4197172328743196    0.257522684241553    
  0.19914166431423397    0.2575665902041621    0.09371063620525309    0.19917363331374208    0.41968851278113867    
  0.6009544091923378    0.652811397616064    0.6528293894634394    0.6009256559580755    0.4197199160585622    
  0.19914164425177097    0.0937499471658263    0.09371063620525309    0.053394067843323956    0.09371068336477816    
  0.2575666505315256    0.5033790061419159    0.6375366059052371    0.6603748844671885    0.637536653422459    
  0.5033789925338136    0.25756659958894873    0.09371068716301577    0.053394067843323956    
  END_DATAGRID_3D    
  END_BLOCK_DATAGRID_3D    