#     DFTpy    
  CRYSTAL 
    
  PRIMVEC    
  2.4719999999999995    0.0    0.0    
  0.0    2.4719999999999995    0.0    
  0.0    0.0    2.4719999999999995    
  PRIMCOORD    
  2    1    
  Si    0.0    0.0    0.0    
  Si    1.2359999999999998    1.2359999999999998    1.2359999999999998    
  BEGIN_BLOCK_DATAGRID_3D    
  3d_datagrid_density    
  BEGIN_DATAGRID_3D#0    
  11    11    11    
  0.0    0.0    0.0    
  2.4719999999999995    0.0    0.0    
  0.0    2.4719999999999995    0.0    
  0.0    0.0    2.4719999999999995    
  0.0549870456376877    0.11131896868946985    0.3246825286761389    0.5293299968484498    0.5395454966396898    
  0.5121387611440135    0.5395454640683466    0.5293299059573181    0.3246825930816578    0.11131902774100184    
  0.0549870456376877    0.11131898202216897    0.1819531365473237    0.39412243802520625    0.5536825509090811    
  0.5442204849787505    0.5162373590847453    0.5442206226571951    0.5536825162867056    0.39412235768716947    
  0.18195315753296315    0.11131898202216897    0.3246825431444615    0.394122413636282    0.5336286041657644    
  0.5858774503992187    0.5481193904092656    0.522674627721298    0.5481194574421818    0.5858774801685448    
  0.5336286376630247    0.39412243255626944    0.3246825431444615    0.5293298636017643    0.5536824910897098    
  0.5858774039463085    0.5742212038088419    0.5391849302134729    0.5226754861616575    0.5391849801631281    
  0.5742211032070944    0.5858774029227933    0.5536825152352255    0.5293298636017643    0.5395454228778397    
  0.5442206001490014    0.548119436531275    0.5391849214548112    0.5236664839161772    0.5162364251827654    
  0.5236665330748846    0.5391849656805935    0.5481194158909901    0.5442205163332348    0.5395454228778397    
  0.5121388333247503    0.5162373379650516    0.5226745843693278    0.5226755440985664    0.516236488695269    
  0.5121397482835871    0.5162364725032059    0.5226754085705293    0.5226746265237673    0.5162373811798033    
  0.5121388333247503    0.5395454979985065    0.5442204886027858    0.5481194095913682    0.5391849144271113    
  0.5236665052813408    0.5162364258064357    0.523666537543434    0.5391849962470606    0.5481193929712068    
  0.5442205234126763    0.5395454979985065    0.5293298695985328    0.5536825821764748    0.5858774205731566    
  0.5742211538496436    0.5391850031444055    0.522675477456649    0.5391849884379719    0.5742211220850447    
  0.5858774903067473    0.55368248532657    0.5293298695985328    0.32468254448382994    0.39412238321146176    
  0.5336286056297566    0.5858774180589904    0.5481194288025986    0.522674587897639    0.5481195013712656    
  0.5858774006993459    0.5336286349383811    0.3941224233452602    0.32468254448382994    0.11131898540450923    
  0.18195315803508194    0.3941224016341804    0.5536825592212983    0.544220533046215    0.5162372844907519    
  0.5442205885719714    0.553682547281531    0.39412235212746605    0.18195310419195665    0.11131898540450923    
  0.0549870456376877    0.11131896868946985    0.3246825286761389    0.5293299968484498    0.5395454966396898    
  0.5121387611440135    0.5395454640683466    0.5293299059573181    0.3246825930816578    0.11131902774100184    
  0.0549870456376877    0.11131898723040742    0.1819531317813734    0.39412236511110743    0.5536825765608828    
  0.5442205131587154    0.5162373423805867    0.5442205432044193    0.5536825082558027    0.39412248516085424    
  0.18195318345016417    0.11131898723040742    0.18195314666017548    0.25907790818786397    0.45518944511354353    
  0.5741306955115294    0.5513529181050743    0.5236655663806168    0.5513530327102145    0.5741305687973967    
  0.455189348783606    0.25907789080115373    0.18195314666017548    0.3941223965933034    0.45518950001951136    
  0.5689893022515614    0.6022663157245545    0.5630617179149314    0.5391858877907129    0.5630617292757101    
  0.602266329298659    0.5689892630295333    0.45518944153399904    0.3941223965933034    0.5536824994377723    
  0.5741307140443911    0.6022662619117665    0.5936775778859426    0.5630625875193842    0.5481184749372496    
  0.5630625704210942    0.5936775662258008    0.602266326207132    0.5741307345395609    0.5536824994377723    
  0.5442205597402352    0.5513530298233732    0.5630616678757231    0.5630626136698336    0.5513520047254181    
  0.5442214345794187    0.5513520862806949    0.5630626229620407    0.5630616851864902    0.551352899971917    
  0.5442205597402352    0.5162373706657861    0.5236655285284143    0.5391858493086388    0.5481185753712948    
  0.5442214961385488    0.5395445492900706    0.5442214561507263    0.5481184363123258    0.5391859655054063    
  0.5236656008510592    0.5162373706657861    0.544220522233136    0.5513529258217453    0.5630616886233423    
  0.5630625776324725    0.5513520283520342    0.5442214456977614    0.5513520991065691    0.5630625930164074    
  0.5630617023421748    0.5513529818555988    0.544220522233136    0.5536825378695391    0.5741308028699053    
  0.6022662517405463    0.5936775665645558    0.5630625969403144    0.5481184776257841    0.5630626690402408    
  0.5936774946430724    0.6022663272355802    0.5741307205946141    0.5536825378695391    0.3941224342957031    
  0.4551894593619251    0.5689893357838125    0.6022663051545388    0.563061655391352    0.5391858600826678    
  0.5630616975210919    0.6022662740629838    0.5689893905761912    0.45518944472999795    0.3941224342957031    
  0.18195314345317679    0.25907793046973404    0.45518941563622434    0.574130730844789    0.5513529376100544    
  0.5236655382128068    0.5513530286255931    0.5741307071431451    0.4551893710338715    0.2590778723651344    
  0.18195314345317679    0.11131898723040742    0.1819531317813734    0.39412236511110743    0.5536825765608828    
  0.5442205131587154    0.5162373423805867    0.5442205432044193    0.5536825082558027    0.39412248516085424    
  0.18195318345016417    0.11131898723040742    0.3246826031810569    0.3941223979370485    0.5336286809580872    
  0.5858774604043175    0.5481194341158767    0.5226745277347393    0.5481194530673749    0.5858774806525963    
  0.5336286181387521    0.3941224644083027    0.3246826031810569    0.39412237299226566    0.4551893823252504    
  0.5689892890830044    0.602266271311631    0.5630616437711796    0.5391858975944483    0.5630617545069291    
  0.6022661957360668    0.5689893008571638    0.4551893676895148    0.39412237299226566    0.5336286127688532    
  0.5689893032360558    0.6264209839093327    0.6301584433834246    0.593678486758636    0.5742202623259459    
  0.5936784934966495    0.6301583504336208    0.6264209688014081    0.5689893307746872    0.5336286127688532    
  0.5858774237341908    0.6022662626592967    0.6301583052227386    0.6301592733113924    0.6022652795887041    
  0.5858784070921469    0.6022653997572612    0.6301592107257116    0.6301583661875677    0.6022662413661901    
  0.5858774237341908    0.5481194219669604    0.5630617553325563    0.5936785403777473    0.602265336694171    
  0.5741316050285584    0.5536815834806715    0.5741317133724797    0.6022653506754502    0.5936784285089989    
  0.5630616757713034    0.5481194219669604    0.5226745933288789    0.5391858653586121    0.5742201843731297    
  0.585878400140496    0.5536816237019376    0.529330821075274    0.553681608975865    0.5858783424674029    
  0.5742202499479316    0.5391860169805547    0.5226745933288789    0.5481194149035349    0.56306172330575    
  0.5936785145193588    0.6022652581760893    0.5741316475535967    0.5536815559090333    0.5741317644830612    
  0.602265320464502    0.5936784495115764    0.5630616950387206    0.5481194149035349    0.5858774071130316    
  0.6022664177725404    0.6301582603183419    0.6301592801121257    0.6022653743190817    0.5858784035180885    
  0.6022653850656522    0.6301592596091419    0.63015830414559    0.602266255614664    0.5858774071130316    
  0.5336285780080855    0.5689892421312238    0.6264209595458148    0.6301583351465391    0.5936784262864107    
  0.5742202822996842    0.593678542415514    0.6301582414202117    0.6264210499854237    0.5689893129468684    
  0.5336285780080855    0.39412239697473145    0.45518942169575527    0.5689893618166194    0.6022663291422753    
  0.5630616619748582    0.5391858595435274    0.563061748100866    0.6022662255626443    0.5689892957295306    
  0.4551893621763252    0.39412239697473145    0.3246826031810569    0.3941223979370485    0.5336286809580872    
  0.5858774604043175    0.5481194341158767    0.5226745277347393    0.5481194530673749    0.5858774806525963    
  0.5336286181387521    0.3941224644083027    0.3246826031810569    0.529329979599523    0.5536825314626134    
  0.5858774623209221    0.57422116886974    0.5391849885032318    0.5226754159138753    0.5391849578683531    
  0.5742211974623861    0.5858774685069412    0.5536826553815379    0.529329979599523    0.5536824428596034    
  0.574130685852119    0.6022663257230768    0.5936775059952083    0.563062560059676    0.5481185181128531    
  0.5630626764852744    0.5936774211298568    0.6022662549137143    0.5741307221390232    0.5536824428596034    
  0.5858774151329218    0.6022663676500872    0.6301582798008797    0.6301593911339946    0.602265350885315    
  0.5858784119808543    0.6022653594215892    0.630159311398047    0.630158370247287    0.6022663400728092    
  0.5858774151329218    0.5742211862258413    0.5936775588954998    0.6301592551384262    0.6264200275640848    
  0.5689901797394928    0.5336277629902435    0.5689903285505397    0.6264200203306857    0.6301593126030403    
  0.5936775451568779    0.5742211862258413    0.5391849416541533    0.5630627166629223    0.6022653464776153    
  0.5689901781770554    0.45518854536344594    0.3941231727662209    0.45518859402158807    0.5689902496278897    
  0.6022653345321543    0.5630625865611832    0.5391849416541533    0.5226754880877637    0.5481184337903783    
  0.5858783830829787    0.5336277699208433    0.3941232503514719    0.3246817859926249    0.3941232183223639    
  0.533627651283124    0.5858784371274205    0.548118549052888    0.5226754880877637    0.5391850464900693    
  0.5630626960620793    0.6022653294313473    0.5689901508458259    0.45518856067987346    0.39412326010816795    
  0.4551886036708226    0.5689902291956204    0.6022653282638575    0.5630626635897118    0.5391850464900693    
  0.5742211127013915    0.5936776081752916    0.6301592764953049    0.6264200165011568    0.5689902499372034    
  0.5336277780621214    0.5689902300963412    0.6264200707775892    0.6301592503349547    0.5936774983961505    
  0.5742211127013915    0.5858774455536547    0.6022662412266602    0.6301583161707979    0.630159311075678    
  0.602265400631257    0.585878416331308    0.602265407358683    0.6301592326011626    0.6301584406144102    
  0.6022663560150141    0.5858774455536547    0.5536825403968694    0.5741306909098662    0.6022663699967171    
  0.5936775623698112    0.56306256008706    0.5481184283316959    0.5630626689937445    0.5936775389651849    
  0.602266315856447    0.5741306213034303    0.5536825403968694    0.529329979599523    0.5536825314626134    
  0.5858774623209221    0.57422116886974    0.5391849885032318    0.5226754159138753    0.5391849578683531    
  0.5742211974623861    0.5858774685069412    0.5536826553815379    0.529329979599523    0.5395454746727381    
  0.544220507279651    0.54811942655432    0.5391849947275492    0.5236665263216368    0.5162364946619347    
  0.523666514839257    0.5391849602871083    0.5481194901903951    0.5442206033969799    0.5395454746727381    
  0.5442204732228063    0.5513529873598821    0.5630616737240234    0.5630625603663508    0.5513520183761482    
  0.5442214102686201    0.5513520842865702    0.5630625486417109    0.5630616548278303    0.5513529612009704    
  0.5442204732228063    0.5481194413679286    0.5630617611119099    0.593678416377817    0.6022653873638278    
  0.5741315923056984    0.5536816319963194    0.5741316811788149    0.6022654027221631    0.5936784898896654    
  0.5630617433033784    0.5481194413679286    0.5391849666443788    0.5630626341342593    0.6022653845903033    
  0.5689902727652607    0.4551884950204893    0.39412320429020564    0.45518853993681097    0.5689902483860269    
  0.6022653877741246    0.5630625981803242    0.5391849666443788    0.5236665360950616    0.5513521231623443    
  0.5741316658891253    0.45518851366754376    0.2590785694086699    0.18195252330781198    0.2590786441091832    
  0.4551885635983684    0.574131603644712    0.5513519721473097    0.5236665360950616    0.5162364502533667    
  0.5442213754734198    0.5536815867514059    0.3941232917148717    0.18195257642336798    0.11131948955420518    
  0.1819525240927162    0.39412317431335675    0.5536816781020398    0.5442214886361592    0.5162364502533667    
  0.5236665568899761    0.55135200113932    0.5741315969068583    0.45518849387261656    0.2590785758541779    
  0.18195254534972008    0.2590786309821186    0.4551885215790052    0.5741316330264932    0.5513520119706264    
  0.5236665568899761    0.5391849035017325    0.5630626661895826    0.6022653270401869    0.5689902469413665    
  0.4551885299025787    0.39412319334214485    0.4551885464370606    0.5689901999335036    0.6022653173153698    
  0.5630626698677134    0.5391849035017325    0.5481194318346992    0.5630617309322222    0.5936784573632371    
  0.6022653957581954    0.5741315916973198    0.5536816322798321    0.5741316966959221    0.6022652638866236    
  0.5936785503492579    0.5630617363834441    0.5481194318346992    0.5442205046624349    0.5513530065625126    
  0.5630617444892959    0.5630626130824268    0.5513520514312714    0.5442214075329699    0.5513520907747783    
  0.5630626412189257    0.5630616179875508    0.551352943855685    0.5442205046624349    0.5395454746727381    
  0.544220507279651    0.54811942655432    0.5391849947275492    0.5236665263216368    0.5162364946619347    
  0.523666514839257    0.5391849602871083    0.5481194901903951    0.5442206033969799    0.5395454746727381    
  0.5121387855499427    0.5162373003231634    0.5226745112185727    0.5226755293976353    0.5162364657512972    
  0.5121397108244047    0.5162364137494131    0.5226754163084043    0.5226745758526603    0.5162374436910272    
  0.5121387855499427    0.5162373527226827    0.5236655635824687    0.5391859426723135    0.548118523783278    
  0.544221423310406    0.5395445587448341    0.5442215195270068    0.5481185206888283    0.5391858418838497    
  0.5236655675893356    0.5162373527226827    0.5226745215423927    0.5391858847206037    0.5742202261863786    
  0.5858783935168197    0.553681544181108    0.5293309162740275    0.5536816045172068    0.5858784100066522    
  0.5742202460435171    0.5391859244041174    0.5226745215423927    0.5226754017790756    0.548118486894809    
  0.5858783357875037    0.5336277563012315    0.3941231838164999    0.3246818343772347    0.39412322905241437    
  0.5336276881078751    0.5858783383628504    0.5481185177392297    0.5226754017790756    0.5162364455527012    
  0.5442215446912463    0.5536816192890589    0.39412318138626345    0.18195251721729938    0.11131948869664589    
  0.1819525497466088    0.39412319871670126    0.5536815926814992    0.5442214769642911    0.5162364455527012    
  0.5121397426018233    0.5395444944950074    0.5293308928028142    0.3246818743169482    0.11131951391316743    
  0.054986653190123504    0.11131950287870825    0.32468176508642826    0.5293309155519283    0.5395445573851306    
  0.5121397426018233    0.5162365112220867    0.5442214166733542    0.5536815528281769    0.39412318072660496    
  0.18195255326785703    0.1113194950712875    0.18195255455059559    0.3941232362740439    0.5536815597243728    
  0.5442214572043114    0.5162365112220867    0.522675412241533    0.548118569357152    0.5858783587187812    
  0.5336277262687246    0.39412324507246205    0.324681828095515    0.39412323982480646    0.5336276968607997    
  0.5858784358097779    0.5481184966462697    0.522675412241533    0.5226745154639292    0.5391858570088351    
  0.5742201937188328    0.585878355870994    0.5536815964283657    0.5293308821510645    0.5536816625717876    
  0.585878364390178    0.5742202359677137    0.5391859033970209    0.5226745154639292    0.5162373523105425    
  0.5236656060103972    0.5391858814456906    0.5481185409588422    0.5442214554483701    0.5395444642376168    
  0.5442215250205419    0.5481185175076491    0.5391858210166485    0.5236655332744198    0.5162373523105425    
  0.5121387855499427    0.5162373003231634    0.5226745112185727    0.5226755293976353    0.5162364657512972    
  0.5121397108244047    0.5162364137494131    0.5226754163084043    0.5226745758526603    0.5162374436910272    
  0.5121387855499427    0.5395454876810445    0.5442204997693697    0.5481194036393617    0.5391850147603758    
  0.5236665007068156    0.5162364337823842    0.5236665062195731    0.5391849515458389    0.548119529924388    
  0.5442205854656538    0.5395454876810445    0.5442205255380267    0.5513530110432042    0.5630617258236559    
  0.5630626290276893    0.5513520121318258    0.5442214242186173    0.5513521115532645    0.5630625259630774    
  0.5630616248576625    0.551352978618721    0.5442205255380267    0.5481194292579727    0.563061795258233    
  0.593678463284693    0.6022653710700264    0.5741316509396995    0.5536815972461395    0.5741316986977228    
  0.6022653902046216    0.5936784456415416    0.5630617544739944    0.5481194292579727    0.5391849426177192    
  0.5630626295126705    0.6022653171791347    0.5689902795979143    0.45518851733224686    0.39412317549995396    
  0.4551885129033415    0.5689902625516583    0.6022653713865652    0.5630626401081729    0.5391849426177192    
  0.5236665352573674    0.5513521191275127    0.5741316274171995    0.4551885329161373    0.2590785808203371    
  0.1819525206744195    0.2590786214195334    0.4551885479184709    0.5741316439795398    0.5513519865530916    
  0.5236665352573674    0.5162364526208709    0.544221393928951    0.5536815475250655    0.3941232880954292    
  0.18195255793447357    0.11131949815089413    0.18195252824028754    0.39412316318280355    0.5536816591495364    
  0.5442214653057831    0.5162364526208709    0.5236665261126744    0.5513519784665728    0.5741316380538672    
  0.455188509321031    0.2590785841034997    0.18195254398883798    0.2590786318115468    0.45518855185037815    
  0.5741316263833844    0.5513520603922512    0.5236665261126744    0.5391849702254581    0.5630627117242832    
  0.6022653155397385    0.5689902602520583    0.4551885108025722    0.3941232091488569    0.45518858807705537    
  0.5689902000952636    0.60226536659773    0.5630626463570835    0.5391849702254581    0.5481194823726268    
  0.5630617442139518    0.593678508224395    0.6022653552570505    0.5741316208902982    0.5536815518938741    
  0.5741316391258147    0.6022653128008362    0.5936785570027682    0.5630617437957729    0.5481194823726268    
  0.5442205171990695    0.551353015615021    0.5630616814550582    0.5630626678586963    0.5513520006923914    
  0.544221447824377    0.5513520964527661    0.563062610217314    0.5630616666548784    0.5513529520432628    
  0.5442205171990695    0.5395454876810445    0.5442204997693697    0.5481194036393617    0.5391850147603758    
  0.5236665007068156    0.5162364337823842    0.5236665062195731    0.5391849515458389    0.548119529924388    
  0.5442205854656538    0.5395454876810445    0.529329957180652    0.5536824993893302    0.5858774872390436    
  0.5742211658210862    0.5391849768095406    0.5226754456109871    0.5391849741995909    0.5742212039134859    
  0.5858774445210547    0.5536826112687717    0.529329957180652    0.5536824655953931    0.5741307090613164    
  0.6022662966487412    0.5936775034048842    0.5630625682687301    0.5481185285355511    0.5630627032307814    
  0.593677421949924    0.6022662737320307    0.574130660778499    0.5536824655953931    0.5858774379393031    
  0.6022663002438436    0.630158331917311    0.6301594065989184    0.6022653646391375    0.5858784025960115    
  0.6022654026182184    0.6301593484447735    0.6301583131072629    0.6022663291214094    0.5858774379393031    
  0.5742211520408228    0.5936774887815609    0.6301592512391235    0.6264199953254643    0.5689901665141509    
  0.5336277500545903    0.5689902938340285    0.6264199521884317    0.6301593362472464    0.5936774839510564    
  0.5742211520408228    0.5391849339578221    0.5630627031792986    0.602265425222625    0.5689901918443128    
  0.45518851208163635    0.3941232016615869    0.4551886357845857    0.5689902344303296    0.6022652994832624    
  0.5630626120968705    0.5391849339578221    0.5226755153447752    0.5481184826450225    0.5858783335868433    
  0.5336277338784003    0.39412324549962363    0.3246817712135927    0.3941232297447597    0.5336276842620014    
  0.5858784130273113    0.54811861797693    0.5226755153447752    0.539184979876729    0.5630626558643125    
  0.6022653585945307    0.568990116656178    0.4551885445979614    0.3941232052720583    0.45518864559995803    
  0.568990193907192    0.6022653282339955    0.5630626274123826    0.539184979876729    0.5742211261419339    
  0.5936776312980127    0.6301592283812023    0.6264199811057469    0.5689902449250388    0.5336277644042194    
  0.5689902632304742    0.6264199844853993    0.6301592551563683    0.5936775021620777    0.5742211261419339    
  0.5858774037377869    0.6022662107447229    0.6301583045304274    0.6301592749664924    0.6022653071664704    
  0.5858784247351458    0.6022654059606243    0.6301592063285064    0.6301584077128971    0.602266286074407    
  0.5858774037377869    0.5536825231709033    0.5741307099491919    0.6022663636509711    0.5936775591541932    
  0.5630625748641499    0.5481184851989523    0.5630626902340145    0.593677455084327    0.6022662797235688    
  0.5741306653047248    0.5536825231709033    0.529329957180652    0.5536824993893302    0.5858774872390436    
  0.5742211658210862    0.5391849768095406    0.5226754456109871    0.5391849741995909    0.5742212039134859    
  0.5858774445210547    0.5536826112687717    0.529329957180652    0.32468260448839026    0.3941224223258369    
  0.5336286294415534    0.5858774296081549    0.5481194697444058    0.5226745215312348    0.5481194195065605    
  0.5858774872282398    0.533628643585469    0.3941225022553482    0.32468260448839026    0.39412233015946846    
  0.4551893861284616    0.5689893345946119    0.602266268768595    0.5630616540162187    0.5391858905164305    
  0.5630617484127385    0.6022661951656513    0.5689892786952672    0.4551894174229968    0.39412233015946846    
  0.533628588142129    0.568989386495363    0.6264209189847821    0.6301583964531016    0.5936784954660551    
  0.5742202502738003    0.593678504826978    0.6301583657153874    0.626421036923305    0.5689893533276602    
  0.533628588142129    0.5858774526944391    0.6022663173328546    0.6301582973809613    0.630159311606051    
  0.6022653140119681    0.5858784246682106    0.6022654573059412    0.6301592793769114    0.6301583408503936    
  0.6022663399252455    0.5858774526944391    0.548119405867025    0.563061776844691    0.5936784806811476    
  0.6022653006508673    0.5741316416523299    0.5536815456157902    0.5741316945906814    0.6022653714023151    
  0.5936784607870992    0.5630616624379742    0.548119405867025    0.5226745828208389    0.5391857985967161    
  0.5742202269801827    0.5858784350809175    0.5536816131271377    0.529330834311902    0.5536816035316098    
  0.5858783444834973    0.5742202734941736    0.5391859135698227    0.5226745828208389    0.54811950319924    
  0.5630617494836676    0.5936784487766754    0.6022652710398417    0.574131645718946    0.5536816374343142    
  0.5741317152409535    0.6022653234193205    0.5936784427539301    0.5630617140054334    0.54811950319924    
  0.5858773894252474    0.6022663743543506    0.6301583145401115    0.6301592971229202    0.6022653700749029    
  0.5858784193249987    0.6022653514155347    0.6301593395398273    0.6301582743377406    0.6022662640331558    
  0.5858773894252474    0.5336286151780716    0.5689892425652149    0.6264209696872628    0.630158342882449    
  0.5936785021594567    0.574220281580524    0.5936785202609653    0.6301582514813766    0.6264210947456477    
  0.5689893556437572    0.5336286151780716    0.3941224233418901    0.45518938017121885    0.5689893734104936    
  0.6022663183518743    0.5630616407494443    0.5391858062137606    0.563061717725051    0.6022662866862734    
  0.5689893303362847    0.45518934105204334    0.3941224233418901    0.32468260448839026    0.3941224223258369    
  0.5336286294415534    0.5858774296081549    0.5481194697444058    0.5226745215312348    0.5481194195065605    
  0.5858774872282398    0.533628643585469    0.3941225022553482    0.32468260448839026    0.11131899201838949    
  0.18195314120142092    0.39412239415867534    0.5536825598034052    0.5442205282346823    0.5162373861503795    
  0.544220550931227    0.5536825250340375    0.3941224537427946    0.18195319211803343    0.11131899201838949    
  0.18195312890764764    0.25907790231518435    0.4551893968998984    0.5741306629661697    0.5513529862618238    
  0.52366553348461    0.5513530209154339    0.5741306311141556    0.4551893537423427    0.2590778787855011    
  0.18195312890764764    0.3941223858737562    0.455189474860307    0.568989264652169    0.6022663171060988    
  0.5630616307174601    0.5391859052256628    0.5630617315316251    0.6022663399776401    0.568989303943007    
  0.4551894374751223    0.3941223858737562    0.5536825225860877    0.5741307324066062    0.6022662812776888    
  0.5936775591326318    0.5630625710524767    0.5481185035143689    0.5630626258892594    0.5936775412862697    
  0.6022663447201106    0.5741306526190749    0.5536825225860877    0.5442205487788568    0.5513530443165416    
  0.5630617265466777    0.5630625995486952    0.5513520012245224    0.5442214217701751    0.5513521008520232    
  0.5630626626242239    0.5630616738956237    0.5513528908692683    0.5442205487788568    0.5162373515814562    
  0.5236655231764012    0.5391858638581131    0.5481185978030569    0.5442215321136114    0.5395445128461495    
  0.5442214200509976    0.5481184534463718    0.539185944292689    0.5236656361198264    0.5162373515814562    
  0.5442206026298384    0.5513529280340965    0.5630616531919385    0.5630625812903156    0.5513520234356808    
  0.5442214678276381    0.5513521053718885    0.5630626065352224    0.5630617037101255    0.5513529247426472    
  0.5442206026298384    0.5536824778498322    0.5741307484431071    0.6022662791044127    0.5936775482569498    
  0.5630626115233391    0.5481184633561502    0.5630626071761226    0.5936774868097521    0.6022662810147144    
  0.5741307189104878    0.5536824778498322    0.3941223858440941    0.45518942786353833    0.5689892798425503    
  0.6022663276756515    0.5630616516502577    0.5391859152173    0.563061752123236    0.6022662092059252    
  0.5689893808986403    0.4551894131917307    0.3941223858440941    0.1819531372378307    0.25907791605577757    
  0.4551894201219756    0.5741306688584012    0.5513529869623603    0.5236655261904833    0.5513530208155429    
  0.5741307251399161    0.4551893417065306    0.2590778679721138    0.1819531372378307    0.11131899201838949    
  0.18195314120142092    0.39412239415867534    0.5536825598034052    0.5442205282346823    0.5162373861503795    
  0.544220550931227    0.5536825250340375    0.3941224537427946    0.18195319211803343    0.11131899201838949    
  0.0549870456376877    0.11131896868946985    0.3246825286761389    0.5293299968484498    0.5395454966396898    
  0.5121387611440135    0.5395454640683466    0.5293299059573181    0.3246825930816578    0.11131902774100184    
  0.0549870456376877    0.11131898202216897    0.1819531365473237    0.39412243802520625    0.5536825509090811    
  0.5442204849787505    0.5162373590847453    0.5442206226571951    0.5536825162867056    0.39412235768716947    
  0.18195315753296315    0.11131898202216897    0.3246825431444615    0.394122413636282    0.5336286041657644    
  0.5858774503992187    0.5481193904092656    0.522674627721298    0.5481194574421818    0.5858774801685448    
  0.5336286376630247    0.39412243255626944    0.3246825431444615    0.5293298636017643    0.5536824910897098    
  0.5858774039463085    0.5742212038088419    0.5391849302134729    0.5226754861616575    0.5391849801631281    
  0.5742211032070944    0.5858774029227933    0.5536825152352255    0.5293298636017643    0.5395454228778397    
  0.5442206001490014    0.548119436531275    0.5391849214548112    0.5236664839161772    0.5162364251827654    
  0.5236665330748846    0.5391849656805935    0.5481194158909901    0.5442205163332348    0.5395454228778397    
  0.5121388333247503    0.5162373379650516    0.5226745843693278    0.5226755440985664    0.516236488695269    
  0.5121397482835871    0.5162364725032059    0.5226754085705293    0.5226746265237673    0.5162373811798033    
  0.5121388333247503    0.5395454979985065    0.5442204886027858    0.5481194095913682    0.5391849144271113    
  0.5236665052813408    0.5162364258064357    0.523666537543434    0.5391849962470606    0.5481193929712068    
  0.5442205234126763    0.5395454979985065    0.5293298695985328    0.5536825821764748    0.5858774205731566    
  0.5742211538496436    0.5391850031444055    0.522675477456649    0.5391849884379719    0.5742211220850447    
  0.5858774903067473    0.55368248532657    0.5293298695985328    0.32468254448382994    0.39412238321146176    
  0.5336286056297566    0.5858774180589904    0.5481194288025986    0.522674587897639    0.5481195013712656    
  0.5858774006993459    0.5336286349383811    0.3941224233452602    0.32468254448382994    0.11131898540450923    
  0.18195315803508194    0.3941224016341804    0.5536825592212983    0.544220533046215    0.5162372844907519    
  0.5442205885719714    0.553682547281531    0.39412235212746605    0.18195310419195665    0.11131898540450923    
  0.0549870456376877    0.11131896868946985    0.3246825286761389    0.5293299968484498    0.5395454966396898    
  0.5121387611440135    0.5395454640683466    0.5293299059573181    0.3246825930816578    0.11131902774100184    
  0.0549870456376877    
  END_DATAGRID_3D    
  END_BLOCK_DATAGRID_3D    