#     DFTpy    
  CRYSTAL 
    
  PRIMVEC    
  1.1837624439771133    -2.0503366970602674    0.0    
  1.1837624439771133    2.0503366970602674    0.0    
  0.0    0.0    2.2282236213103443    
  PRIMCOORD    
  1    1    
  Si    0.0    0.0    0.0    
  BEGIN_BLOCK_DATAGRID_3D    
  3d_datagrid_density    
  BEGIN_DATAGRID_3D#0    
  11    11    11    
  0.0    0.0    0.0    
  1.1837624439771133    -2.0503366970602674    0.0    
  1.1837624439771133    2.0503366970602674    0.0    
  0.0    0.0    2.2282236213103443    
  0.04947079555920669    0.09396526683644789    0.26326610691070634    0.4520604140990002    0.4929587699290752    
  0.4815047281901116    0.49295880854990237    0.4520604255347929    0.26326609248471916    0.09396523713447441    
  0.04947079555920669    0.09396524789783593    0.09392534263772878    0.20592222227904475    0.39808014170933576    
  0.48806722055709595    0.47695128885559906    0.47698879127485255    0.4880483456684081    0.39799376442339945    
  0.2059682261032399    0.09396524789783593    0.2632660869582522    0.2059222545584323    0.26340006560379864    
  0.39799907165691584    0.4809541133875975    0.47058622294145586    0.4530096568872225    0.4705618939919357    
  0.48107985138451764    0.3979938782129433    0.2632660869582522    0.45206041769579053    0.39808018191471156    
  0.39799909920639476    0.45197995913887296    0.4880208331940941    0.4706997617980326    0.4426495709570922    
  0.442696383915001    0.4705618765602427    0.48804844325296015    0.45206041769579053    0.4929587932958147    
  0.48806721067399883    0.480954092318999    0.48802075252914173    0.4930854786303854    0.4769788846105501    
  0.4529047577483677    0.4426495735003907    0.4530095071005491    0.47698883830858485    0.4929587932958147    
  0.48150475180224    0.47695123455343136    0.47058624140707    0.47069976305785416    0.47697883857561785    
  0.48136788069949715    0.47697884309020283    0.4706997732017862    0.4705862181177476    0.47695134936802414    
  0.48150475180224    0.49295881295127686    0.4769888455861143    0.45300959566628296    0.4426495209896365    
  0.45290481576166775    0.47697883337710556    0.49308546295653205    0.48802083613306657    0.4809540937414348    
  0.4880671928913577    0.49295881295127686    0.45206044710229537    0.4880483820251322    0.47056188831778395    
  0.4426962888842851    0.4426495999434848    0.4706998158433403    0.4880208867909422    0.4519799156693069    
  0.3979991099210613    0.39808021427131    0.45206044710229537    0.26326607910857996    0.3979938676181783    
  0.481079895663943    0.47056194429893344    0.45300959351882875    0.4705862574650481    0.4809541895334921    
  0.3979991965274742    0.2634001063401976    0.20592227622464299    0.26326607910857996    0.09396523187077638    
  0.20596825986745057    0.39799373309857633    0.48804831188141345    0.4769887822735642    0.47695133239463916    
  0.4880672007352719    0.39808015648493056    0.2059221766681147    0.09392533650588555    0.09396523187077638    
  0.04947079555920669    0.09396526683644789    0.26326610691070634    0.4520604140990002    0.4929587699290752    
  0.4815047281901116    0.49295880854990237    0.4520604255347929    0.26326609248471916    0.09396523713447441    
  0.04947079555920669    0.09076168746278346    0.1438391473413505    0.3077843472301679    0.45293579227266384    
  0.46689857053230155    0.45080258159455533    0.46689860758625906    0.452935800908344    0.3077842718036104    
  0.1438391406517753    0.09076168746278346    0.14383911924579812    0.14376486718519493    0.2565040894594352    
  0.41536097811529177    0.4689352225168424    0.44730421399588527    0.4473443404059326    0.46890789356866847    
  0.41530557099306126    0.25652521110733845    0.14383911924579812    0.3077843177764519    0.2565041532671888    
  0.307933575784954    0.41529320464913283    0.4654743039477617    0.4425168230478702    0.42342406843144487    
  0.4425007684123365    0.4655651165867271    0.4153056464792319    0.3077843177764519    0.45293576960178916    
  0.4153610522323476    0.41529322834154764    0.4528438078143137    0.4688967644291543    0.4426024463965944    
  0.41353850254765256    0.41357178795126553    0.4425007392717379    0.46890795809813557    0.45293576960178916    
  0.46689857972023374    0.46893526128723234    0.46547429952509645    0.46889669406871615    0.4670227774777625    
  0.4473303037760334    0.4233452807735275    0.4135385593826929    0.4234239284379043    0.44734432349922126    
  0.46689857972023374    0.45080266829946586    0.4473042184082765    0.44251681979140717    0.44260238970121235    
  0.44733033701882835    0.45067150193349365    0.4473302817171296    0.4426023949006234    0.4425167554231652    
  0.44730429252853693    0.45080266829946586    0.46689859222000096    0.4473444175730836    0.4234239804941681    
  0.4135384932140743    0.4233453407825672    0.44733028780798334    0.46702274409731215    0.4688967386389994    
  0.46547422243662406    0.4689352385807718    0.46689859222000096    0.45293579391668476    0.4689079458128159    
  0.44250076454001597    0.4135716970147642    0.41353856233043906    0.442602470930907    0.46889678719353894    
  0.4528437832715323    0.4152931770726768    0.4153611122776096    0.45293579391668476    0.30778427392933533    
  0.4153057089104484    0.4655651397239739    0.44250079658990665    0.4234240323150287    0.44251679973147057    
  0.465474314536573    0.4152933173615103    0.3079335832835765    0.2565041770575841    0.30778427392933533    
  0.14383908728943395    0.2565252211223805    0.4153055563415262    0.4689078908125208    0.44734437108039693    
  0.44730428830520735    0.4689352677871413    0.4153610068197615    0.2565041125808733    0.1437648503404721    
  0.14383908728943395    0.09076168746278346    0.1438391473413505    0.3077843472301679    0.45293579227266384    
  0.46689857053230155    0.45080258159455533    0.46689860758625906    0.452935800908344    0.3077842718036104    
  0.1438391406517753    0.09076168746278346    0.26019824687398485    0.30991706602207747    0.40776735735737835    
  0.4390993351589037    0.4009108268470864    0.37696460980197777    0.4009108592574817    0.4390993820197425    
  0.40776732435094337    0.30991703329435416    0.26019824687398485    0.3099170119225022    0.30982914316791954    
  0.38356320481024714    0.43830991197739516    0.41554291323582226    0.37547482426380874    0.37549570009342265    
  0.4155253096677755    0.4382989850355246    0.3835522790262644    0.3099170119225022    0.4077672532711659    
  0.383563291709629    0.40786881748357484    0.4382780103740246    0.41908104805035457    0.3736021238979463    
  0.352416912497084    0.3735989627254743    0.4191063727786514    0.4382991554618322    0.4077672532711659    
  0.4390993352701576    0.43830989149356203    0.4382779432748685    0.4390439129431693    0.41552729814171135    
  0.37363140999984645    0.3436928569921486    0.3437023661901168    0.37359889016361975    0.415525366037818    
  0.4390993352701576    0.4009108651541551    0.41554295268255137    0.41908096910996545    0.4155272347941004    
  0.4009749224362809    0.3754874132785541    0.35238991155297406    0.34369291166137544    0.3524167874414592    
  0.3754957613351478    0.4009108651541551    0.37696468535798855    0.37547481614799577    0.37360213031824535    
  0.3736313433824842    0.3754873976874576    0.37689804952617495    0.3754873755705769    0.37363140197707095    
  0.3736020837801587    0.3754748477015788    0.37696468535798855    0.4009108888689494    0.3754958515039722    
  0.3524168385981839    0.3436928236617798    0.3523899414452752    0.3754873342545729    0.40097488929145475    
  0.4155273082035386    0.4190809316518236    0.4155429593654587    0.4009108888689494    0.4390993120559762    
  0.41552534331200663    0.3735989733514236    0.3437022918908142    0.343692880645501    0.3736314316065835    
  0.41552738711051257    0.439043905734071    0.43827791456189324    0.43830993627170917    0.4390993120559762    
  0.4077673590046428    0.438299162526315    0.41910635753389547    0.3735989514970509    0.3524169006863018    
  0.37360209915936676    0.41908103981639294    0.43827807303280164    0.4078688661374041    0.3835632605352255    
  0.4077673590046428    0.3099169825695972    0.38355226304565265    0.43829895446162315    0.4155252998572484    
  0.37549576807510043    0.3754748907295315    0.4155429403573827    0.43830983856036093    0.3835631632370409    
  0.3098291603521878    0.3099169825695972    0.26019824687398485    0.30991706602207747    0.40776735735737835    
  0.4390993351589037    0.4009108268470864    0.37696460980197777    0.4009108592574817    0.4390993820197425    
  0.40776732435094337    0.30991703329435416    0.26019824687398485    0.5045381008166905    0.5034830298496751    
  0.47254507689041053    0.39787792776545533    0.3261241971013566    0.29866957517214493    0.32612422576884725    
  0.39787797091500066    0.4725449840622465    0.5034829900751824    0.5045381008166905    0.50348297330205    
  0.5034592562509703    0.4857273771182626    0.42614011693450615    0.34818342446164274    0.29848435732874556    
  0.2984874042291874    0.3481809587112359    0.4261371887755868    0.4857240133519302    0.50348297330205    
  0.4725449892757871    0.4857274343977153    0.4725682187766038    0.42613145488669063    0.35636651164304306    
  0.2984875806053118    0.27710928137080815    0.29848685000055497    0.35637014567184666    0.4261373835745878    
  0.4725449892757871    0.3978779154891817    0.42614009109962975    0.4261313879747289    0.3978693692180644    
  0.3481817355977301    0.2984920159715356    0.2694722000937854    0.2694742391909965    0.29848678168334214    
  0.3481810120148994    0.3978779154891817    0.3261242462728713    0.34818347768131974    0.3563664445682125    
  0.3481816562200506    0.3261337604099557    0.2984860652514791    0.2771052634701124    0.2694722473389772    
  0.27710919360384384    0.2984874418045007    0.3261242462728713    0.2986696400559202    0.29848435702852566    
  0.2984875865773254    0.2984919367278251    0.29848605966942543    0.2986596449005835    0.29848604956459557    
  0.29849198172275876    0.29848751292824727    0.2984843635602212    0.2986696400559202    0.3261242435605138    
  0.2984874974388696    0.2771092339576102    0.2694721588552204    0.2771052986777809    0.2984860124703134    
  0.3261337087386436    0.34818174582659017    0.3563664120399161    0.34818343706336397    0.3261242435605138    
  0.3978778832586452    0.3481809723329266    0.29848687420171116    0.2694742007619425    0.2694722032205552    
  0.2984920118756457    0.34818178166702873    0.39786937869867955    0.42613140645557684    0.4261401276613136    
  0.3978778832586452    0.4725450335063908    0.4261373638206166    0.3563701354167502    0.29848686195497065    
  0.27710931908007796    0.2984875480718679    0.35636651158457233    0.4261315463438613    0.4725682954113872    
  0.4857274211014764    0.4725450335063908    0.5034829042508993    0.48572401489796985    0.42613717953902525    
  0.3481809404871191    0.298487445227101    0.2984844169223366    0.348183458929091    0.42614004131887134    
  0.485727312922474    0.5034592755810819    0.5034829042508993    0.5045381008166905    0.5034830298496751    
  0.47254507689041053    0.39787792776545533    0.3261241971013566    0.29866957517214493    0.32612422576884725    
  0.39787797091500066    0.4725449840622465    0.5034829900751824    0.5045381008166905    0.6225524041439547    
  0.5789809888011554    0.4711872210741092    0.3530263393965164    0.27201728364803274    0.24483195913729036    
  0.2720173360152133    0.3530263561190124    0.47118712741456736    0.5789809546089354    0.6225524041439547    
  0.5789809383790018    0.5789762981487978    0.5035363512612028    0.39203493585551796    0.29590523549953074    
  0.24512863093977333    0.2451321011725501    0.29590255577108415    0.39202726179373    0.5035448937477933    
  0.5789809383790018    0.4711872103411165    0.5035364484419079    0.4711998102365301    0.39202776749342244    
  0.3056802815618094    0.2458216241542361    0.22540886211786457    0.24581958042737692    0.30568974062766463    
  0.39202735617217027    0.4711872103411165    0.35302636545864446    0.3920349524908591    0.39202776781618787    
  0.35302290521538304    0.2959052494129083    0.24582474855795938    0.2184236730803494    0.2184241725851977    
  0.2458195677951009    0.29590261391184075    0.35302636545864446    0.27201733193679517    0.29590527773847275    
  0.30568024810848865    0.2959051623688843    0.272018534131686    0.24513162171268496    0.2254037518039298    
  0.21842371061350313    0.2254087478824816    0.24513208649430843    0.27201733193679517    0.24483204649626628    
  0.24512858982401964    0.24582162875755806    0.24582467920889473    0.24513159939910945    0.24482810031542795    
  0.24513158271700786    0.2458246914192624    0.2458215804445553    0.24512863962781672    0.24483204649626628    
  0.27201731996813766    0.2451321469759553    0.22540879966543967    0.21842365309188747    0.22540377703487552    
  0.24513160195517117    0.2720185109609347    0.29590521703069544    0.30568020059938306    0.2959052411750437    
  0.27201731996813766    0.35302636870497867    0.295902592479411    0.2458195451118168    0.21842412572686634    
  0.218423723494636    0.24582473342896122    0.29590525046985217    0.3530229066010617    0.39202770370066886    
  0.3920350486866967    0.35302636870497867    0.47118715074959455    0.39202737115759295    0.3056897788093602    
  0.24581956667591584    0.22540885932449298    0.24582162894055953    0.30568027861109626    0.3920278632084956    
  0.4711997635201324    0.5035364737217489    0.47118715074959455    0.578980918470941    0.503544890855724    
  0.39202721877812385    0.2959025522309684    0.24513211290844805    0.24512864867762585    0.295905251791885    
  0.39203492672229256    0.5035363228310613    0.5789762708439755    0.578980918470941    0.6225524041439547    
  0.5789809888011554    0.4711872210741092    0.3530263393965164    0.27201728364803274    0.24483195913729036    
  0.2720173360152133    0.3530263561190124    0.47118712741456736    0.5789809546089354    0.6225524041439547    
  0.6371360069854788    0.5835520794488347    0.4599218772926487    0.3344766841380905    0.2528506091771961    
  0.22624320455746416    0.2528506375502189    0.334476694783977    0.4599218544465637    0.5835519300726205    
  0.6371360069854788    0.5835519904156786    0.5835399484194485    0.4959649796208032    0.37521060574207704    
  0.27679818105020215    0.226652721444152    0.22665756360690087    0.27679340720237605    0.3752040180158831    
  0.4959720969673333    0.5835519904156786    0.45992185293831966    0.49596504817958    0.4599392443616739    
  0.3752033678590919    0.2868491347348059    0.22750107538546707    0.20763815564761645    0.22749995400306885    
  0.2868588948908592    0.3752041285708699    0.45992185293831966    0.3344766682035131    0.3752106279785323    
  0.37520340662470836    0.3344703446300355    0.2767972734466502    0.22750513705831993    0.20088509780277627    
  0.20088400410727164    0.22749994366658588    0.2767934692206733    0.3344766682035131    0.2528506167094114    
  0.2767981859440664    0.2868490955406597    0.27679720804699454    0.252854008797683    0.22665687530983686    
  0.207631680858043    0.20088510809432608    0.20763806715623195    0.22665758990620158    0.2528506167094114    
  0.2262432244873175    0.2266526893662057    0.22750108290259435    0.22750512957359342    0.22665685217000334    
  0.22623657413696535    0.2266568628651581    0.22750513503082265    0.2275010635917765    0.22665274590566753    
  0.2262432244873175    0.25285064143907965    0.22665760112859656    0.20763811723260542    0.2008850684395108    
  0.20763170032756073    0.22665684409276363    0.2528539997220227    0.27679727071354226    0.2868490813388755    
  0.276798148587528    0.25285064143907965    0.3344767120400172    0.27679341476717495    0.2274999548435148    
  0.2008839549763228    0.20088511606931284    0.22750517013884008    0.27679730005243297    0.3344703218343069    
  0.3752034081571756    0.37521064085423966    0.3344767120400172    0.45992185370897015    0.37520411057428377    
  0.2868589122594794    0.22749998999342919    0.2076381388378819    0.2275011009996305    0.28684915684958606    
  0.3752035060679417    0.4599392759803416    0.49596508134417805    0.45992185370897015    0.5835519995451564    
  0.49597214075695095    0.3752039913247636    0.2767933951169995    0.22665755793958497    0.22665274485871778    
  0.27679817147729413    0.37521058997902346    0.4959648757833647    0.5835398745365942    0.5835519995451564    
  0.6371360069854788    0.5835520794488347    0.4599218772926487    0.3344766841380905    0.2528506091771961    
  0.22624320455746416    0.2528506375502189    0.334476694783977    0.4599218544465637    0.5835519300726205    
  0.6371360069854788    0.622552408048564    0.5789810161204755    0.47118723646070176    0.3530263655260635    
  0.27201730626502363    0.24483197768904164    0.27201735201262744    0.35302635779566804    0.47118713820169766    
  0.5789809641621126    0.622552408048564    0.5789809764417495    0.5789763159136475    0.5035363389848714    
  0.3920349147834327    0.29590524793233086    0.2451286096696263    0.24513209596441582    0.295902567381555    
  0.39202724472871786    0.5035449027668598    0.5789809764417495    0.4711872370439323    0.5035364283698863    
  0.47119980461687483    0.39202775507089904    0.30568027177209384    0.24582162018306175    0.22540885150738518    
  0.24581955545262318    0.3056897362131428    0.3920273220660067    0.4711872370439323    0.3530263381524686    
  0.3920349627231794    0.39202778280781403    0.3530229240285185    0.29590523893545806    0.24582473919145797    
  0.21842367095384516    0.21842416740679516    0.24581954916215779    0.2959026173661664    0.3530263381524686    
  0.2720173285549874    0.2959052694435479    0.3056802541324921    0.2959051804137965    0.2720185572515226    
  0.24513161042367404    0.22540374263196597    0.21842369744419074    0.22540875968894034    0.24513208868640673    
  0.2720173285549874    0.24483205560427346    0.24512858512001692    0.2458216192571191    0.2458246920723866    
  0.24513159083023336    0.24482808870629924    0.24513157109844527    0.2458246969535903    0.24582155773176187    
  0.24512865356997102    0.24483205560427346    0.27201733789974214    0.245132144754996    0.22540880030252683    
  0.21842366381517264    0.2254037749484958    0.24513158695877407    0.2720185369404881    0.2959052058383132    
  0.3056801886656602    0.2959052469634321    0.27201733789974214    0.35302636404074716    0.2959026123584583    
  0.24581954116072047    0.2184241177788387    0.21842371245347392    0.2458247422652797    0.29590524342473845    
  0.3530229025905527    0.39202770932414854    0.3920350110318933    0.35302636404074716    0.4711871534344706    
  0.39202735721129034    0.3056897610418771    0.24581957067889915    0.2254088392028682    0.2458216119111825    
  0.30568028585897783    0.39202785583730093    0.47119979235710335    0.5035364448629032    0.4711871534344706    
  0.5789808859988842    0.5035449189889196    0.3920272215768012    0.2959025758030905    0.2451321220569511    
  0.24512865118831514    0.2959052734959673    0.392034931664001    0.5035363370286441    0.578976275671055    
  0.5789808859988842    0.622552408048564    0.5789810161204755    0.47118723646070176    0.3530263655260635    
  0.27201730626502363    0.24483197768904164    0.27201735201262744    0.35302635779566804    0.47118713820169766    
  0.5789809641621126    0.622552408048564    0.5045380898055634    0.5034830169934157    0.47254506914391803    
  0.3978779212812445    0.32612416900055463    0.2986696080582471    0.3261242038982775    0.3978779713389863    
  0.4725450480754091    0.5034829844605372    0.5045380898055634    0.5034829694299755    0.5034592532974537    
  0.48572733485471364    0.4261401042451859    0.3481834106511247    0.2984843484138168    0.2984873971158573    
  0.348180952503587    0.4261372182370446    0.48572404908617284    0.5034829694299755    0.47254495768370414    
  0.48572742943274616    0.4725682351263865    0.4261314648010513    0.35636652961972054    0.298487577357313    
  0.27710930007480755    0.29848685892915156    0.356370154329452    0.42613739264801515    0.47254495768370414    
  0.3978779267770183    0.4261400803085966    0.42613141773678437    0.39786937662594335    0.34818173715643874    
  0.298492005289436    0.2694721982146198    0.26947423549578736    0.29848679243283566    0.34818101323415707    
  0.3978779267770183    0.32612421505858535    0.3481834465999537    0.3563664440966031    0.34818167917356196    
  0.3261337379234076    0.298486073535998    0.2771052911168408    0.26947223821502253    0.27710919246802934    
  0.2984874664852535    0.32612421505858535    0.2986696776263952    0.29848433111578127    0.2984875872562898    
  0.2984919369340705    0.2984860484261253    0.29865964380336085    0.2984860487103518    0.29849198591118553    
  0.29848752865455247    0.29848438244643755    0.2986696776263952    0.32612424370694926    0.2984875255859718    
  0.27710923377444746    0.26947215836316474    0.27710529796801914    0.29848599459487035    0.32613371443131456    
  0.3481817489235733    0.3563663941152976    0.34818345528906364    0.32612424370694926    0.3978778988530822    
  0.3481809841521871    0.2984868553470875    0.26947417907382915    0.26947220336601874    0.2984920080081873    
  0.34818181451268626    0.39786935907876875    0.42613135894084175    0.42614011785515804    0.3978778988530822    
  0.47254505818747455    0.42613738400392864    0.3563701256704269    0.29848684048675267    0.27710928087107956    
  0.29848753329201666    0.35636649929535774    0.4261315412441144    0.47256826869723945    0.4857273928337984    
  0.47254505818747455    0.5034829309103362    0.4857240192136863    0.42613718186602206    0.3481809398581032    
  0.2984874516763477    0.29848439658884235    0.3481834410456754    0.4261400400094295    0.4857272996608935    
  0.5034592576765592    0.5034829309103362    0.5045380898055634    0.5034830169934157    0.47254506914391803    
  0.3978779212812445    0.32612416900055463    0.2986696080582471    0.3261242038982775    0.3978779713389863    
  0.4725450480754091    0.5034829844605372    0.5045380898055634    0.26019825714463934    0.30991706377413303    
  0.40776737001224606    0.4390993383403766    0.4009108458466312    0.3769645670804037    0.4009108827793965    
  0.43909940215188936    0.40776729655154054    0.3099170265660949    0.26019825714463934    0.30991699969857245    
  0.3098291595462805    0.3835632190491997    0.438309911642127    0.4155429213519423    0.3754748377065597    
  0.37549570115323655    0.4155253092647556    0.4382989655155295    0.38355225798864423    0.30991699969857245    
  0.4077673062809235    0.383563301258172    0.40786881710694795    0.4382780068742755    0.41908104924908823    
  0.37360215172356054    0.35241690098949585    0.37359895026620416    0.41910634331390983    0.4382991565641995    
  0.4077673062809235    0.43909933403742746    0.4383098894944779    0.43827793598003956    0.43904391987084235    
  0.4155273033543274    0.37363143789837727    0.3436928815342205    0.34370236081442973    0.37359888574605965    
  0.4155253917862046    0.43909933403742746    0.40091090620037084    0.41554297643701515    0.4190809816116972    
  0.4155272204847308    0.40097494780671505    0.3754874098582939    0.3523898908653628    0.34369292246275324    
  0.35241679335167486    0.37549577298608044    0.40091090620037084    0.3769646509064985    0.3754748289717272    
  0.373602151432578    0.37363134070554027    0.37548739429051964    0.3768980427721007    0.3754874046223019    
  0.37363139919777266    0.3736020647547633    0.37547485448560114    0.3769646509064985    0.4009109048541768    
  0.3754958166178534    0.3524168520165788    0.3436928179077544    0.35238992022491583    0.3754873386601108    
  0.40097491748711495    0.4155273085916097    0.4190809462824561    0.4155429516552872    0.4009109048541768    
  0.43909927857815206    0.4155253247436847    0.3735989831153639    0.3437023171068538    0.34369285772459324    
  0.373631421023738    0.41552735709895616    0.4390439322234728    0.43827795499378835    0.4383099322259657    
  0.43909927857815206    0.40776732166833224    0.4382991287846123    0.4191063436407768    0.37359895688298267    
  0.3524169270702322    0.3736020747630262    0.4190810424035782    0.43827807137417446    0.40786887683410145    
  0.38356324813412684    0.40776732166833224    0.3099169891905058    0.38355227487901944    0.43829894173737777    
  0.4155252858502399    0.37549574792328094    0.3754748880359745    0.41554295233811916    0.4383098738575271    
  0.3835631857264294    0.30982914695365527    0.3099169891905058    0.26019825714463934    0.30991706377413303    
  0.40776737001224606    0.4390993383403766    0.4009108458466312    0.3769645670804037    0.4009108827793965    
  0.43909940215188936    0.40776729655154054    0.3099170265660949    0.26019825714463934    0.09076169393385346    
  0.14383914416947724    0.30778433501345914    0.4529357518459622    0.4668985284168282    0.45080255840519806    
  0.4668985836533883    0.4529358031495773    0.3077842649697551    0.1438391437249709    0.09076169393385346    
  0.14383911350237324    0.14376486718942783    0.25650409913475625    0.4153609965670905    0.46893520061357535    
  0.4473042454700774    0.4473443291199943    0.46890785749438113    0.4153055872952758    0.256525202985583    
  0.14383911350237324    0.307784327604988    0.25650417371582235    0.3079335879605861    0.41529323221574627    
  0.4654742969253785    0.44251683505201056    0.4234240714512598    0.44250078445046986    0.4655651114144976    
  0.4153056903330878    0.307784327604988    0.45293578496370646    0.4153610349415852    0.4152932330347038    
  0.4528438093355707    0.46889678156602504    0.44260247068794106    0.4135385266295352    0.41357178566536923    
  0.4425007723956263    0.4689079537918663    0.45293578496370646    0.4668986006303198    0.46893525849509426    
  0.46547429214557334    0.468896693639997    0.4670227626076396    0.44733034476278594    0.42334528833915047    
  0.41353858205277805    0.4234239063413154    0.4473443318931298    0.4668986006303198    0.4508026661696899    
  0.44730420527222625    0.4425168248385702    0.44260236686837295    0.44733032225626224    0.4506715023551286    
  0.4473303037429405    0.44260238556055664    0.44251677548223095    0.4473042696193972    0.4508026661696899    
  0.4668985687293238    0.4473444104367002    0.42342398701434975    0.4135384772007345    0.42334531934234976    
  0.44733031732731665    0.46702273594109706    0.46889674892689065    0.46547422858815013    0.46893523554488503    
  0.4668985687293238    0.4529357760545532    0.46890792880463206    0.44250075661069743    0.4135717008123053    
  0.41353856015242    0.4426024188820759    0.4688968175885603    0.4528438011677677    0.4152931760498527    
  0.41536112932098096    0.4529357760545532    0.30778429004330105    0.41530570410296874    0.46556513781582515    
  0.44250077595836623    0.42342403553209906    0.44251680203385624    0.465474312984099    0.4152933411749908    
  0.3079335702710458    0.2565041804774656    0.30778429004330105    0.14383909934264405    0.25652520317317634    
  0.4153055363837046    0.4689078368416453    0.4473443611489623    0.4473042620597481    0.4689352206850255    
  0.4153609997581203    0.2565041021449606    0.14376484572376474    0.14383909934264405    0.09076169393385346    
  0.14383914416947724    0.30778433501345914    0.4529357518459622    0.4668985284168282    0.45080255840519806    
  0.4668985836533883    0.4529358031495773    0.3077842649697551    0.1438391437249709    0.09076169393385346    
  0.04947079555920669    0.09396526683644789    0.26326610691070634    0.4520604140990002    0.4929587699290752    
  0.4815047281901116    0.49295880854990237    0.4520604255347929    0.26326609248471916    0.09396523713447441    
  0.04947079555920669    0.09396524789783593    0.09392534263772878    0.20592222227904475    0.39808014170933576    
  0.48806722055709595    0.47695128885559906    0.47698879127485255    0.4880483456684081    0.39799376442339945    
  0.2059682261032399    0.09396524789783593    0.2632660869582522    0.2059222545584323    0.26340006560379864    
  0.39799907165691584    0.4809541133875975    0.47058622294145586    0.4530096568872225    0.4705618939919357    
  0.48107985138451764    0.3979938782129433    0.2632660869582522    0.45206041769579053    0.39808018191471156    
  0.39799909920639476    0.45197995913887296    0.4880208331940941    0.4706997617980326    0.4426495709570922    
  0.442696383915001    0.4705618765602427    0.48804844325296015    0.45206041769579053    0.4929587932958147    
  0.48806721067399883    0.480954092318999    0.48802075252914173    0.4930854786303854    0.4769788846105501    
  0.4529047577483677    0.4426495735003907    0.4530095071005491    0.47698883830858485    0.4929587932958147    
  0.48150475180224    0.47695123455343136    0.47058624140707    0.47069976305785416    0.47697883857561785    
  0.48136788069949715    0.47697884309020283    0.4706997732017862    0.4705862181177476    0.47695134936802414    
  0.48150475180224    0.49295881295127686    0.4769888455861143    0.45300959566628296    0.4426495209896365    
  0.45290481576166775    0.47697883337710556    0.49308546295653205    0.48802083613306657    0.4809540937414348    
  0.4880671928913577    0.49295881295127686    0.45206044710229537    0.4880483820251322    0.47056188831778395    
  0.4426962888842851    0.4426495999434848    0.4706998158433403    0.4880208867909422    0.4519799156693069    
  0.3979991099210613    0.39808021427131    0.45206044710229537    0.26326607910857996    0.3979938676181783    
  0.481079895663943    0.47056194429893344    0.45300959351882875    0.4705862574650481    0.4809541895334921    
  0.3979991965274742    0.2634001063401976    0.20592227622464299    0.26326607910857996    0.09396523187077638    
  0.20596825986745057    0.39799373309857633    0.48804831188141345    0.4769887822735642    0.47695133239463916    
  0.4880672007352719    0.39808015648493056    0.2059221766681147    0.09392533650588555    0.09396523187077638    
  0.04947079555920669    0.09396526683644789    0.26326610691070634    0.4520604140990002    0.4929587699290752    
  0.4815047281901116    0.49295880854990237    0.4520604255347929    0.26326609248471916    0.09396523713447441    
  0.04947079555920669    
  END_DATAGRID_3D    
  END_BLOCK_DATAGRID_3D    