#     DFTpy    
  CRYSTAL 
    
  PRIMVEC    
  1.0753261895669963    -1.8625195950394795    0.0    
  1.0753261895669963    1.8625195950394795    0.0    
  0.0    0.0    2.024111533862069    
  PRIMCOORD    
  1    1    
  Si    0.0    0.0    0.0    
  BEGIN_BLOCK_DATAGRID_3D    
  3d_datagrid_density    
  BEGIN_DATAGRID_3D#0    
  11    11    9    
  0.0    0.0    0.0    
  1.0753261895669963    -1.8625195950394795    0.0    
  1.0753261895669963    1.8625195950394795    0.0    
  0.0    0.0    2.024111533862069    
  0.05234678601922817    0.09219910400614242    0.2551746868317436    0.502349965264498    0.6400988588214791    
  0.6646701696031775    0.6400989364401065    0.5023499579002495    0.255174691325034    0.0921991088055147    
  0.05234678601922817    0.09219913570595807    0.09224073244889344    0.1969101025121774    0.41783788063142974    
  0.6022474629008883    0.6572189007962826    0.6571899198564091    0.6022748676475184    0.41780868369026297    
  0.19694518331521868    0.09219913570595807    0.2551746554996648    0.1969100439178963    0.2551315849735064    
  0.4178413364898032    0.581841882943324    0.6449763517861802    0.6508824964263191    0.6449739974071106    
  0.5818546995009211    0.4178087104418682    0.2551746554996648    0.5023498682269324    0.41783790061292403    
  0.41784132430318105    0.5023930095112392    0.6022542378783141    0.6449793183653795    0.6446877983320994    
  0.6446852031382742    0.6449740998371193    0.6022749112701824    0.5023498682269324    0.6400989621821469    
  0.6022474756740371    0.5818419450938757    0.6022542884139964    0.6400509534021166    0.6572096327341658    
  0.6508747930479817    0.6446878344973197    0.6508824158176866    0.6571899629395701    0.6400989621821469    
  0.6646702405649451    0.6572189204651776    0.6449764155479674    0.6449793580051597    0.6572094898845722    
  0.6647132719519561    0.657209530157615    0.6449792430343392    0.6449763842041337    0.657218981587078    
  0.6646702405649451    0.6400988863659527    0.6571899502273026    0.650882451270123    0.6446878033843995    
  0.6508747390326183    0.6572095418774704    0.640050971462806    0.6022542638554568    0.5818418274436743    
  0.6022474970527493    0.6400988863659527    0.5023498013480225    0.6022748285003656    0.6449740601999884    
  0.644685204161848    0.6446878639531192    0.6449792519777979    0.6022542982662562    0.5023929613210065    
  0.4178413307879556    0.41783794932508245    0.5023498013480225    0.25517465919570315    0.41780861954123727    
  0.5818546655822984    0.6449741084300304    0.6508825041644839    0.6449763964535593    0.5818419172060243    
  0.41784133087178865    0.2551316238721561    0.19691009874730342    0.25517465919570315    0.09219912409644408    
  0.19694515361605047    0.41780873560864756    0.6022749558110451    0.6571899458561011    0.6572189584765552    
  0.6022474701024193    0.4178378304333846    0.19691004705143475    0.09224072796835121    0.09219912409644408    
  0.05234678601922817    0.09219910400614242    0.2551746868317436    0.502349965264498    0.6400988588214791    
  0.6646701696031775    0.6400989364401065    0.5023499579002495    0.255174691325034    0.0921991088055147    
  0.05234678601922817    0.11483341903814834    0.16543969694399333    0.32860372654019415    0.520748147995155    
  0.6035683292145844    0.6123918679351911    0.6035684012239477    0.5207480818557975    0.32860378307334515    
  0.16543968684710955    0.11483341903814834    0.16543974435014355    0.16546191376928282    0.27522360387621403    
  0.46031105954941    0.5829512981960535    0.6072017986784536    0.6071944950694432    0.5829612147101553    
  0.4602879186385688    0.27525027794101514    0.16543974435014355    0.32860374243007795    0.275223537035731    
  0.32859436685281135    0.4603078293049342    0.5704613845703705    0.5986194055496683    0.5955014940333953    
  0.5986133507995864    0.5704828387672508    0.4602879732857075    0.32860374243007795    0.5207480167576903    
  0.4603110551629208    0.4603077812753428    0.520755326158734    0.582951832699258    0.5986290980383012    
  0.5882069827542358    0.5882120063656743    0.598613396599499    0.582961318780441    0.5207480167576903    
  0.603568341210499    0.5829512999737656    0.570461363748159    0.5829518568877988    0.6035619209919698    
  0.6072010691918409    0.5954894749756786    0.5882070274541884    0.5955015479775169    0.6071945290375912    
  0.603568341210499    0.6123918691337388    0.6072018942039346    0.5986194343529744    0.5986290081466455    
  0.6072009600103656    0.612394656586039    0.6072010702800243    0.5986290688698139    0.598619404764043    
  0.6072018766996911    0.6123918691337388    0.6035683675561135    0.6071944920999445    0.59550159268365    
  0.5882069726202243    0.5954894104279828    0.6072010119448688    0.6035620077647554    0.5829518091011519    
  0.5704613590318877    0.5829513065842893    0.6035683675561135    0.5207479744795563    0.582961212592059    
  0.5986133054054646    0.5882120947369289    0.5882069800895103    0.598628968459658    0.5829518476751309    
  0.5207553305211153    0.46030778035509046    0.4603112199940575    0.5207479744795563    0.32860373475759175    
  0.4602878641750033    0.5704828628690973    0.5986133895592586    0.5955016008222882    0.5986194137079249    
  0.5704613305401133    0.46030779195759186    0.32859441469198913    0.27522363087434115    0.32860373475759175    
  0.16543973069884618    0.275250260422956    0.4602879865757469    0.5829613025429083    0.6071945218718187    
  0.6072018752402196    0.5829513167441935    0.46031105258160987    0.2752235437301311    0.16546193249523516    
  0.16543973069884618    0.11483341903814834    0.16543969694399333    0.32860372654019415    0.520748147995155    
  0.6035683292145844    0.6123918679351911    0.6035684012239477    0.5207480818557975    0.32860378307334515    
  0.16543968684710955    0.11483341903814834    0.3815092237439637    0.4206091157979014    0.49969866527913853    
  0.5360345276122948    0.5151662636267098    0.49761434403490107    0.5151663292571784    0.5360345322252972    
  0.4996986354043055    0.42060912112177956    0.3815092237439637    0.42060915944366756    0.42059700330161237    
  0.47936332884875227    0.5308572333754201    0.5242922543335774    0.49580566319368824    0.4958049211419369    
  0.5242926254596434    0.5308520415674294    0.47936474454657024    0.42060915944366756    0.49969860103000807    
  0.4793632453759134    0.49971476354153443    0.5308474060445899    0.5258490393908166    0.4926134810359916    
  0.4748552665483825    0.4926143069449283    0.5258524233330857    0.5308520694234771    0.49969860103000807    
  0.5360344498566326    0.5308572084140724    0.5308474294241261    0.5360303132216978    0.5242912677631868    
  0.4926222359853377    0.46570169977276166    0.46570434181228604    0.49261443312349124    0.5242926398235315    
  0.5360344498566326    0.5151662953463516    0.5242922778242944    0.5258491458686    0.5242913367430189    
  0.5151743316805218    0.4958031728482678    0.47485079514411    0.46570172599298454    0.4748551842394813    
  0.4958049629740925    0.5151662953463516    0.4976144006304186    0.4958056412969186    0.4926135060412954    
  0.492622221706656    0.49580304326523356    0.49761070535217766    0.49580312687087424    0.4926221950062378    
  0.4926135034186569    0.4958057109057434    0.4976144006304186    0.5151662686412074    0.4958049423333722    
  0.47485526816880724    0.4657016725199139    0.4748507401389192    0.49580306617915315    0.5151743858928048    
  0.5242913326771568    0.5258490679262886    0.5242922644059694    0.5151662686412074    0.5360344180691838    
  0.5242926417228526    0.49261436259660224    0.46570432821693175    0.46570175347586584    0.49262219337530194    
  0.5242912860607795    0.5360302335643413    0.5308474360811716    0.5308573339000511    0.5360344180691838    
  0.49969857417377755    0.5308519946162723    0.5258523912448838    0.4926144553982183    0.4748553258943347    
  0.4926134596000066    0.5258490561643382    0.5308474162969603    0.4997148182188939    0.4793633325321923    
  0.49969857417377755    0.42060914006123773    0.4793647318888163    0.5308521282680634    0.5242927457441542    
  0.49580494720206947    0.49580569919009687    0.5242922464200436    0.5308571780681152    0.4793632644109316    
  0.42059696879357844    0.42060914006123773    0.3815092237439637    0.4206091157979014    0.49969866527913853    
  0.5360345276122948    0.5151662636267098    0.49761434403490107    0.5151663292571784    0.5360345322252972    
  0.4996986354043055    0.42060912112177956    0.3815092237439637    0.7068601512406981    0.6827843592440779    
  0.6104558197285844    0.5108319005695379    0.42922010247323344    0.3989154239156317    0.42922022485230427    
  0.510831888448138    0.6104559551799236    0.6827843712994236    0.7068601512406981    0.6827844390448028    
  0.6827798487421209    0.6338184489555774    0.5452807443313211    0.4534713951991721    0.39829395307659593    
  0.39829499271489166    0.45346959425397193    0.5452821666503695    0.6338168083308451    0.6827844390448028    
  0.6104558710568793    0.6338183480970904    0.6104582450410037    0.5452811724576485    0.4622532679995283    
  0.3970254174712937    0.3730520034713597    0.3970266686321328    0.46225271062935014    0.5452822255652188    
  0.6104558710568793    0.5108317623243157    0.5452807516294281    0.5452811288153371    0.5108313381788658    
  0.4534699063945146    0.3970265880152641    0.3632896932286525    0.36328784030312883    0.3970266746104226    
  0.453469590792011    0.5108317623243157    0.42922016012350855    0.4534714018815277    0.4622533009207304    
  0.4534699140783028    0.4292205363425786    0.39829560507123074    0.37305024188138924    0.3632896452697042    
  0.3730520063580821    0.3982949704941986    0.42922016012350855    0.39891544020607356    0.39829398486486484    
  0.39702545971692454    0.39702654178840957    0.3982954706452446    0.39891336054868276    0.39829555675154593    
  0.39702658708993405    0.3970254461509413    0.398293969915776    0.39891544020607356    0.4292201537495898    
  0.39829500698466036    0.3730520732143417    0.3632896698446256    0.37305022858701375    0.39829552617474906    
  0.4292205851248982    0.45346992708820855    0.46225325222412894    0.45347139738132203    0.4292201537495898    
  0.5108317430727639    0.4534696409508185    0.3970266435888626    0.36328787169374166    0.3632896477427184    
  0.3970264879327546    0.4534699454500831    0.510831325856542    0.5452810963338599    0.5452808889056298    
  0.5108317430727639    0.6104558144288618    0.5452820614839179    0.46225270478650754    0.39702673281062084    
  0.3730520817056476    0.39702544627032754    0.46225326247276366    0.5452811326758613    0.6104583923048849    
  0.6338184305555348    0.6104558144288618    0.6827844171840102    0.6338167772228913    0.5452822039251903    
  0.45346967928427667    0.398295034802853    0.39829397367860925    0.45347144548311574    0.5452807674696962    
  0.6338183587469473    0.6827798582669794    0.6827844171840102    0.7068601512406981    0.6827843592440779    
  0.6104558197285844    0.5108319005695379    0.42922010247323344    0.3989154239156317    0.42922022485230427    
  0.510831888448138    0.6104559551799236    0.6827843712994236    0.7068601512406981    0.8120914389565713    
  0.7586526989492696    0.6290045693464767    0.49023753772782036    0.3951036865462428    0.36259923896505386    
  0.3951037400106811    0.49023753281323396    0.6290045582646299    0.7586526942299224    0.8120914389565713    
  0.7586527337243687    0.7586469956567145    0.6672473594951771    0.5347911847046328    0.4221474328206851    
  0.3620363433156245    0.3620406876034232    0.4221449287792993    0.5347892948265485    0.667250435616865    
  0.7586527337243687    0.6290044974078416    0.6672472602105771    0.6290104000695633    0.5347926170643257    
  0.4322128108826154    0.360905586672209    0.33627798177264884    0.3609026401426043    0.4322188523825689    
  0.5347893134194992    0.6290044974078416    0.4902374476944277    0.5347911860100977    0.534792609477308    
  0.4902325908701949    0.4221433629635844    0.3609064568560889    0.3266292476101376    0.3266314328325165    
  0.3609027084318431    0.42214495167193217    0.4902374476944277    0.39510374619844757    0.4221474264075972    
  0.43221287773568784    0.4221434227165098    0.3951097739738077    0.3620420778480971    0.33627390855331746    
  0.3266292605250458    0.33627792719975624    0.3620407183288074    0.39510374619844757    0.3625992998135587    
  0.36203634024468956    0.36090563028181855    0.360906492353203    0.3620419832123627    0.36258728033699483    
  0.3620420029509813    0.3609064051556681    0.36090562062645254    0.36203639570765417    0.3625992998135587    
  0.39510372279004924    0.36204072468692317    0.3362779707116456    0.32662923475856326    0.3362738806865384    
  0.3620420251993621    0.39510978317214024    0.42214340035675196    0.4322127819218067    0.4221474509072362    
  0.39510372279004924    0.4902373951627499    0.42214488997614963    0.3609026880955753    0.3266314180911401    
  0.3266292903127936    0.36090641640557114    0.42214341503853137    0.4902325440740885    0.5347926495242589    
  0.5347912484231848    0.4902373951627499    0.6290045018259517    0.534789202285103    0.432218830159356    
  0.3609027076097272    0.33627800481461095    0.36090561338634297    0.4322128303193873    0.5347926111579944    
  0.6290104763393798    0.6672473979249948    0.6290045018259517    0.7586527304180554    0.6672504142848357    
  0.5347893379831314    0.42214499002301015    0.36204070107747444    0.36203636315952703    0.4221474213793622    
  0.5347911022624366    0.6672472954392283    0.7586469804974577    0.7586527304180554    0.8120914389565713    
  0.7586526989492696    0.6290045693464767    0.49023753772782036    0.3951036865462428    0.36259923896505386    
  0.3951037400106811    0.49023753281323396    0.6290045582646299    0.7586526942299224    0.8120914389565713    
  0.7068601663164877    0.6827843619828751    0.6104558538413128    0.5108318803734853    0.429220098258262    
  0.39891542955702275    0.42922017728524536    0.5108318492052921    0.6104559518780598    0.6827843596361237    
  0.7068601663164877    0.6827844298722339    0.682779839804659    0.6338184413796218    0.5452807712353449    
  0.4534714237111033    0.39829391916558804    0.3982949896458817    0.45346963711154864    0.5452821538628275    
  0.6338168322133091    0.6827844298722339    0.6104558664078603    0.6338183360798921    0.6104582843050536    
  0.5452811901289009    0.4622532780843463    0.39702540325123464    0.37305200419751366    0.3970266765628644    
  0.462252667938396    0.5452821919321452    0.6104558664078603    0.5108317772274792    0.5452807788067667    
  0.5452811455627239    0.5108313746149763    0.4534699012850954    0.39702658444166855    0.3632896416029624    
  0.36328782542784877    0.39702671286078484    0.45346968541407334    0.5108317772274792    0.4292201340539034    
  0.45347143134046675    0.46225328721762765    0.45346994206790936    0.4292205532706821    0.3982955506095141    
  0.3730502738469307    0.36328967136617757    0.3730520265060864    0.3982950122098217    0.4292201340539034    
  0.39891542654621864    0.39829398909136005    0.3970254415116984    0.39702653438110724    0.3982954623495217    
  0.3989133799336839    0.39829554090592634    0.3970265645080956    0.3970254205065199    0.398293963599268    
  0.39891542654621864    0.4292201342094794    0.3982950021320074    0.3730520597459406    0.36328964169884587    
  0.37305024025904354    0.3982955203598481    0.4292206173217207    0.4534698773293626    0.462253266614651    
  0.45347143012452085    0.4292201342094794    0.5108317499069213    0.45346961536303737    0.397026639434948    
  0.3632878798562006    0.36328964816634196    0.3970264940059164    0.4534699088117591    0.5108313539619093    
  0.5452811299429425    0.5452809505392385    0.5108317499069213    0.6104558518520051    0.545282047623092    
  0.46225268755592097    0.3970266967429618    0.37305207443080607    0.3970254331907836    0.46225323254189343    
  0.5452811378487541    0.6104583540346783    0.6338184868154867    0.6104558518520051    0.6827844427277194    
  0.6338167738631098    0.545282203203767    0.45346967747603256    0.3982950272321313    0.3982939825090412    
  0.4534714330994324    0.5452807644090053    0.6338183436263561    0.6827798824292995    0.6827844427277194    
  0.7068601663164877    0.6827843619828751    0.6104558538413128    0.5108318803734853    0.429220098258262    
  0.39891542955702275    0.42922017728524536    0.5108318492052921    0.6104559518780598    0.6827843596361237    
  0.7068601663164877    0.38150923978182544    0.420609104411589    0.49969865492491816    0.5360344989015267    
  0.5151662485645696    0.49761433183225934    0.5151663324846808    0.5360345286963717    0.49969865178202005    
  0.4206091259654594    0.38150923978182544    0.42060916820323363    0.4205969866374968    0.47936334361749416    
  0.5308572234263534    0.5242922568238524    0.495805655941671    0.4958049164065405    0.5242926435147213    
  0.5308520456559125    0.4793647639625205    0.42060916820323363    0.4996985935091672    0.4793632430415279    
  0.49971478255623897    0.5308473880498215    0.5258490478644319    0.49261346550534507    0.47485525951977975    
  0.49261431481116036    0.5258524453571617    0.5308520719094797    0.4996985935091672    0.5360344458179374    
  0.5308572140917803    0.5308474366005834    0.5360303214282222    0.524291254699558    0.49262222013059    
  0.46570168854502036    0.4657043464459886    0.4926144405719846    0.5242926488721051    0.5360344458179374    
  0.5151662842303578    0.5242922670758464    0.5258491693758649    0.524291340791497    0.5151743325263671    
  0.49580315988071494    0.4748507957178503    0.4657017282815714    0.4748551990195715    0.4958049693317853    
  0.5151662842303578    0.4976143986272588    0.49580564080732853    0.4926134894148089    0.492622229192504    
  0.4958030498571364    0.49761071097400755    0.4958031084672393    0.49262219981595134    0.4926135026696434    
  0.49580570523730205    0.4976143986272588    0.5151662717466452    0.495804951113476    0.4748552551011184    
  0.46570167353294495    0.47485074741920646    0.49580306997885726    0.5151743906903943    0.5242913261836036    
  0.5258490716897909    0.5242922438523497    0.5151662717466452    0.5360344162403684    0.524292617259221    
  0.4926143284742483    0.46570434195822913    0.4657017497734224    0.49262219050717965    0.5242912878118178    
  0.5360302354906024    0.5308474329209271    0.5308573267729524    0.5360344162403684    0.4996985839802076    
  0.5308519816223951    0.5258523742718285    0.49261444701511925    0.4748553200361176    0.49261348233973623    
  0.5258490602118315    0.5308474138611315    0.49971483105159387    0.4793633292537739    0.4996985839802076    
  0.4206091358475235    0.4793647129105047    0.5308521034387325    0.5242927276467453    0.49580492894096656    
  0.49580568417888865    0.5242922666123317    0.5308571833293815    0.4793632452067562    0.420596970377067    
  0.4206091358475235    0.38150923978182544    0.420609104411589    0.49969865492491816    0.5360344989015267    
  0.5151662485645696    0.49761433183225934    0.5151663324846808    0.5360345286963717    0.49969865178202005    
  0.4206091259654594    0.38150923978182544    0.11483342140502112    0.16543969596202604    0.3286037086861416    
  0.5207481386416297    0.6035683142892863    0.6123918728790104    0.6035684747264823    0.5207481287159219    
  0.3286038023577843    0.16543969830083724    0.11483342140502112    0.1654397503790971    0.16546191182067765    
  0.27522362710297094    0.4603110334100004    0.5829512682258932    0.6072018432738944    0.6071945023335492    
  0.582961226008496    0.46028795254817334    0.2752502755875681    0.1654397503790971    0.32860374363067785    
  0.2752235592812337    0.3285943592642387    0.46030781977626084    0.5704613509816839    0.598619386019701    
  0.5955014864328284    0.5986133606010753    0.5704829153578189    0.4602880121146806    0.32860374363067785    
  0.5207479946047845    0.46031104411560786    0.4603077961357359    0.5207552997015906    0.5829518345483684    
  0.5986290794921795    0.5882070224881969    0.5882120359414771    0.5986133703870425    0.5829612148218766    
  0.5207479946047845    0.6035683752471067    0.582951263272957    0.5704613841424788    0.5829518447854575    
  0.6035619232885479    0.6072011184474019    0.5954894108094005    0.5882069863684213    0.5955015328546647    
  0.6071944931633095    0.6035683752471067    0.6123918838101087    0.6072018900461013    0.5986194564041596    
  0.598629045792246    0.607200966783257    0.6123946258774513    0.6072010561024829    0.5986290802022143    
  0.5986194080853684    0.6072018724394533    0.6123918838101087    0.6035683927515956    0.6071945159778757    
  0.5955015753312867    0.5882070201734975    0.5954893793773595    0.6072010253424722    0.60356195497534    
  0.5829518358721468    0.5704613372609304    0.5829512573278944    0.6035683927515956    0.5207479825770053    
  0.5829612411477599    0.5986133068164493    0.5882120815193949    0.5882069692065524    0.5986289643438861    
  0.5829518752294864    0.5207552988021104    0.4603077287480422    0.4603111626630306    0.5207479825770053    
  0.32860370878543216    0.46028786372506364    0.5704828819567227    0.5986134236003517    0.595501582460102    
  0.5986194418118884    0.5704613632812215    0.4603077866174096    0.3285944294373846    0.2752235983294638    
  0.32860370878543216    0.16543972927223805    0.27525023964404194    0.46028799116231245    0.5829613009261932    
  0.6071945229242799    0.6072018641923365    0.5829513268704436    0.4603110606500135    0.27522354393164655    
  0.16546191621903755    0.16543972927223805    0.11483342140502112    0.16543969596202604    0.3286037086861416    
  0.5207481386416297    0.6035683142892863    0.6123918728790104    0.6035684747264823    0.5207481287159219    
  0.3286038023577843    0.16543969830083724    0.11483342140502112    0.05234678601922817    0.09219910400614242    
  0.2551746868317436    0.502349965264498    0.6400988588214791    0.6646701696031775    0.6400989364401065    
  0.5023499579002495    0.255174691325034    0.0921991088055147    0.05234678601922817    0.09219913570595807    
  0.09224073244889344    0.1969101025121774    0.41783788063142974    0.6022474629008883    0.6572189007962826    
  0.6571899198564091    0.6022748676475184    0.41780868369026297    0.19694518331521868    0.09219913570595807    
  0.2551746554996648    0.1969100439178963    0.2551315849735064    0.4178413364898032    0.581841882943324    
  0.6449763517861802    0.6508824964263191    0.6449739974071106    0.5818546995009211    0.4178087104418682    
  0.2551746554996648    0.5023498682269324    0.41783790061292403    0.41784132430318105    0.5023930095112392    
  0.6022542378783141    0.6449793183653795    0.6446877983320994    0.6446852031382742    0.6449740998371193    
  0.6022749112701824    0.5023498682269324    0.6400989621821469    0.6022474756740371    0.5818419450938757    
  0.6022542884139964    0.6400509534021166    0.6572096327341658    0.6508747930479817    0.6446878344973197    
  0.6508824158176866    0.6571899629395701    0.6400989621821469    0.6646702405649451    0.6572189204651776    
  0.6449764155479674    0.6449793580051597    0.6572094898845722    0.6647132719519561    0.657209530157615    
  0.6449792430343392    0.6449763842041337    0.657218981587078    0.6646702405649451    0.6400988863659527    
  0.6571899502273026    0.650882451270123    0.6446878033843995    0.6508747390326183    0.6572095418774704    
  0.640050971462806    0.6022542638554568    0.5818418274436743    0.6022474970527493    0.6400988863659527    
  0.5023498013480225    0.6022748285003656    0.6449740601999884    0.644685204161848    0.6446878639531192    
  0.6449792519777979    0.6022542982662562    0.5023929613210065    0.4178413307879556    0.41783794932508245    
  0.5023498013480225    0.25517465919570315    0.41780861954123727    0.5818546655822984    0.6449741084300304    
  0.6508825041644839    0.6449763964535593    0.5818419172060243    0.41784133087178865    0.2551316238721561    
  0.19691009874730342    0.25517465919570315    0.09219912409644408    0.19694515361605047    0.41780873560864756    
  0.6022749558110451    0.6571899458561011    0.6572189584765552    0.6022474701024193    0.4178378304333846    
  0.19691004705143475    0.09224072796835121    0.09219912409644408    0.05234678601922817    0.09219910400614242    
  0.2551746868317436    0.502349965264498    0.6400988588214791    0.6646701696031775    0.6400989364401065    
  0.5023499579002495    0.255174691325034    0.0921991088055147    0.05234678601922817    
  END_DATAGRID_3D    
  END_BLOCK_DATAGRID_3D    