#     DFTpy    
  CRYSTAL 
    
  PRIMVEC    
  1.1024352531695254    -1.9094738705446763    0.0    
  1.1024352531695254    1.9094738705446763    0.0    
  0.0    0.0    2.0751395557241374    
  PRIMCOORD    
  1    1    
  Si    0.0    0.0    0.0    
  BEGIN_BLOCK_DATAGRID_3D    
  3d_datagrid_density    
  BEGIN_DATAGRID_3D#0    
  11    11    9    
  0.0    0.0    0.0    
  1.1024352531695254    -1.9094738705446763    0.0    
  1.1024352531695254    1.9094738705446763    0.0    
  0.0    0.0    2.0751395557241374    
  0.05120721873741349    0.09181201478079068    0.2557326616364347    0.48863150574559    0.5991021007059231    
  0.6120868592726106    0.5991021430168784    0.48863147002557367    0.25573268591930004    0.09181201274593051    
  0.05120721873741349    0.09181202227005636    0.09185127522854272    0.19773084045772324    0.4118093725384939    
  0.5714024230838352    0.6064310013405991    0.6064179628517271    0.5714259441507074    0.411753194569341    
  0.19777868730113762    0.09181202227005636    0.2557326197657473    0.1977308413251982    0.2557098954802575    
  0.4117847840666425    0.5548831732038444    0.5964391764017235    0.594578239553574    0.5964244333436496    
  0.5549349340090446    0.4117531431048115    0.2557326197657473    0.48863146137243263    0.41180935472717284    
  0.41178471056141    0.48867552726447644    0.5713997346931508    0.596469492897408    0.5862912446830236    
  0.5863040143748608    0.5964245222242254    0.5714259505981546    0.48863146137243263    0.5991021409383445    
  0.5714025366694404    0.5548832236622236    0.5713998561605597    0.5990653664157024    0.6064373472209269    
  0.5945371512990413    0.5862911974436431    0.5945782659248786    0.606417896439858    0.5991021409383445    
  0.6120868331527046    0.6064310025439499    0.5964391261282539    0.5964695432659259    0.6064372916883628    
  0.6121030091600792    0.6064373712611443    0.5964694848081148    0.5964392535063773    0.6064309558921649    
  0.6120868331527046    0.5991021896290225    0.6064179252255245    0.5945782600700363    0.5862912697796903    
  0.594537065675354    0.6064374219619946    0.5990653957970452    0.5713997443493126    0.5548832056097869    
  0.5714024589375508    0.5991021896290225    0.488631455832675    0.5714259255885693    0.5964245209108586    
  0.5863040562621995    0.5862911529472328    0.5964695030458792    0.5713998485422793    0.4886755330621047    
  0.411784787209986    0.4118093594589961    0.488631455832675    0.2557326686242747    0.4117531146284743    
  0.5549348852270869    0.5964244781501864    0.5945781623462084    0.5964391370689648    0.5548832180760305    
  0.41178472498327856    0.25570986785028205    0.19773084450416414    0.2557326686242747    0.09181201888182082    
  0.19777869717208518    0.41175311874164117    0.5714259664525617    0.6064179141517833    0.6064310142907634    
  0.571402506016181    0.4118093456692409    0.19773087874006784    0.09185127024699051    0.09181201888182082    
  0.05120721873741349    0.09181201478079068    0.2557326616364347    0.48863150574559    0.5991021007059231    
  0.6120868592726106    0.5991021430168784    0.48863147002557367    0.25573268591930004    0.09181201274593051    
  0.05120721873741349    0.11495892593780521    0.1664301203918098    0.3276798168438877    0.5021747985843632    
  0.5616979440318504    0.5618684472310755    0.5616979572955588    0.5021747496287768    0.32767983445208715    
  0.16643011803624388    0.11495892593780521    0.1664301092172318    0.16643916459756708    0.2757924639203073    
  0.44959295110335823    0.5487226855931506    0.5576118434905859    0.5576147817434083    0.5487284661471745    
  0.4495561749777085    0.2758230190015486    0.1664301092172318    0.32767977559511524    0.2757924109892055    
  0.3276968532998782    0.44956844414822666    0.5390300751783268    0.5501137544029931    0.5416171262006675    
  0.5501032381430457    0.5390691021613032    0.44955617076198195    0.32767977559511524    0.502174815074367    
  0.44959296662310133    0.44956840244009916    0.5021760685919882    0.5487149029570176    0.5501407061380732    
  0.5328692268307806    0.5328808363451963    0.5501032781195214    0.5487284904801907    0.502174815074367    
  0.5616979454706115    0.5487226850981409    0.5390300806320152    0.5487149883222533    0.56170856991376    
  0.5576223439949736    0.5415838045196221    0.5328692183826659    0.5416171776635417    0.5576147307881287    
  0.5616979454706115    0.5618684170828157    0.5576118270456156    0.5501137483114886    0.5501407712390375    
  0.5576222554606677    0.5618425064770687    0.5576223514160329    0.5501407206167991    0.5501138775739376    
  0.5576118452633275    0.5618684170828157    0.5616980179918271    0.5576147462028492    0.5416171848947007    
  0.5328692509704396    0.5415837277965002    0.5576223190568312    0.5617085968773126    0.5487149599790503    
  0.5390301199364186    0.5487226603820785    0.5616980179918271    0.5021747187036197    0.5487284432614372    
  0.550103308971121    0.5328808593364958    0.5328691100447428    0.5501407087544689    0.5487150170270854    
  0.5021760311694106    0.44956846674102857    0.449592915848588    0.5021747187036197    0.3276797870119451    
  0.44955619046335377    0.5390690188398137    0.5501032551302062    0.5416170791158663    0.5501138183684875    
  0.5390300694824667    0.44956841597584435    0.32769684087415707    0.2757924944538979    0.3276797870119451    
  0.16643011015288972    0.2758230888616234    0.44955616862490455    0.5487285369210593    0.5576147271339735    
  0.5576118607037043    0.5487227487506909    0.44959290374386135    0.2757924974509715    0.16643914827697487    
  0.16643011015288972    0.11495892593780521    0.1664301203918098    0.3276798168438877    0.5021747985843632    
  0.5616979440318504    0.5618684472310755    0.5616979572955588    0.5021747496287768    0.32767983445208715    
  0.16643011803624388    0.11495892593780521    0.3819887692316395    0.4186756611500557    0.4864369741741124    
  0.5044530709785944    0.471282205560662    0.4504250841919152    0.4712822626240185    0.5044529874404001    
  0.48643701730908134    0.4186756599902294    0.3819887692316395    0.4186756907221947    0.41865298245436894    
  0.47014308176662023    0.5053127142265352    0.48368061473684254    0.44903515493115703    0.44903707122255765    
  0.4836808490461476    0.5053049744347837    0.4701461800170307    0.4186756907221947    0.48643694718097635    
  0.4701430734190621    0.4864660224788475    0.5053001967400909    0.4864651583102812    0.4464717183767738    
  0.4274275528098154    0.44647033655127755    0.4864710117483597    0.5053049828767087    0.48643694718097635    
  0.5044530491649862    0.5053127124074172    0.5053001745078464    0.5044397864691362    0.48367782212116933    
  0.4464794155254931    0.4184767034299204    0.41847989757711107    0.4464704196677763    0.4836809010498769    
  0.5044530491649862    0.4712822401522554    0.48368069555502946    0.48646522108485035    0.4836779254616536    
  0.4713006931377028    0.4490377988154465    0.42741984211790995    0.41847667117041143    0.4274275552657332    
  0.4490370427320759    0.4712822401522554    0.45042505647250497    0.4490351312510818    0.44647167174173585    
  0.4464794696783505    0.449037705061388    0.4504041316445144    0.4490377665223794    0.44647940631831484    
  0.4464717757275952    0.44903507613280313    0.45042505647250497    0.4712822904065028    0.4490370996771136    
  0.4274276170913022    0.4184767111030696    0.4274198348257888    0.44903784071927605    0.4713006598666045    
  0.48367790335446703    0.48646524724170925    0.48368064606478917    0.4712822904065028    0.5044529880233687    
  0.48368089006277043    0.44647040752667005    0.41847993518049087    0.4184766385282188    0.44647944044914045    
  0.4836779360760042    0.5044397111112825    0.5053002478071048    0.5053127043418588    0.5044529880233687    
  0.4864370158323278    0.5053049485221014    0.48647096887344193    0.44647033672187286    0.42742748510633755    
  0.4464716662562026    0.4864652505271701    0.5053001914107363    0.48646601042629467    0.47014309181476727    
  0.4864370158323278    0.41867567453407456    0.4701462633852159    0.5053049562253099    0.48368091758858217    
  0.44903703866427985    0.4490351546110737    0.48368070344936376    0.5053126815970346    0.4701431521688199    
  0.4186529547010189    0.41867567453407456    0.3819887692316395    0.4186756611500557    0.4864369741741124    
  0.5044530709785944    0.471282205560662    0.4504250841919152    0.4712822626240185    0.5044529874404001    
  0.48643701730908134    0.4186756599902294    0.3819887692316395    0.6823633203277728    0.6550399569212333    
  0.5743074903365307    0.4681967193137215    0.3853567146758414    0.3553214401431677    0.3853567339895408    
  0.46819666771367985    0.5743075143356646    0.6550399665229139    0.6823633203277728    0.655039967288961    
  0.6550459891955906    0.6001321662788155    0.5044610222495717    0.41004490647727715    0.35517466172201245    
  0.35517386451801375    0.41004594680126716    0.504459751314455    0.6001345380516717    0.655039967288961    
  0.5743074494248838    0.6001321205901464    0.5743036561354652    0.504462917690798    0.41932926411247445    
  0.3547756844408921    0.33142377575047244    0.3547740114723315    0.41933151907705735    0.5044597354247857    
  0.5743074494248838    0.4681967231941171    0.5044610417696509    0.5044628441329598    0.46819667220673133    
  0.4100449019440012    0.3547764061801619    0.3224672202356573    0.3224718642732291    0.35477408106299635    
  0.41004596204722615    0.4681967231941171    0.38535670245981146    0.4100449610071793    0.41932928278722587    
  0.4100449989297946    0.38535776590910686    0.3551715494752385    0.33142656794427    0.3224672150476368    
  0.3314238057375532    0.35517381774150264    0.38535670245981146    0.3553214264209313    0.35517462769826275    
  0.35477563255370775    0.3547764329387774    0.35517147521435605    0.3553251340172727    0.35517154126272016    
  0.3547764080502453    0.35477571402727565    0.3551746594863003    0.3553214264209313    0.38535674462359787    
  0.35517384082323206    0.33142379958071233    0.32246726241714146    0.33142653126826094    0.35517155080389395    
  0.3853578373522176    0.41004495210181086    0.4193293104220792    0.41004490028897683    0.38535674462359787    
  0.46819664055957944    0.41004592293590864    0.3547740424055931    0.3224718856576262    0.32246714338415017    
  0.35477641401977517    0.4100449817086752    0.46819659060042956    0.5044628976748352    0.5044610331327732    
  0.46819664055957944    0.5743074434367149    0.5044597469949373    0.4193314542394258    0.3547740461025962    
  0.3314237459313443    0.35477568142871524    0.41932929881254083    0.5044628937851644    0.574303635653493    
  0.6001321580717427    0.5743074434367149    0.655039918207722    0.6001346000227346    0.5044597987583473    
  0.4100460078730851    0.3551738042841549    0.35517468810480735    0.410044988990734    0.5044610178130902    
  0.6001322183320041    0.655045954332979    0.655039918207722    0.6823633203277728    0.6550399569212333    
  0.5743074903365307    0.4681967193137215    0.3853567146758414    0.3553214401431677    0.3853567339895408    
  0.46819666771367985    0.5743075143356646    0.6550399665229139    0.6823633203277728    0.7683825552264301    
  0.7143076339135465    0.5829284142396376    0.44458800120324055    0.3521406287260675    0.32098951009038135    
  0.35214064323892386    0.44458797102879727    0.5829284657908361    0.7143076386415268    0.7683825552264301    
  0.7143076730365993    0.7143222226169098    0.6216945233916936    0.48904977002710615    0.3787379748860528    
  0.32081203850183554    0.3208137815109724    0.3787371585298028    0.48904798922729364    0.6216982990724741    
  0.7143076730365993    0.58292837631209    0.6216945471532208    0.5829192215825282    0.4890495220271737    
  0.38910605942963666    0.3204044826338151    0.29666072244733177    0.32040332617183104    0.38910854259865035    
  0.48904793991645273    0.58292837631209    0.44458797021027685    0.48904975926968663    0.48904942827986264    
  0.44459439951056606    0.3787397827780579    0.32040108973434056    0.2876158311687538    0.28761354494821384    
  0.3204033809602475    0.3787371804134568    0.44458797021027685    0.352140638889448    0.37873804300837755    
  0.3891061075252826    0.3787398786242497    0.35213144076290437    0.3208148472501157    0.2966601627017607    
  0.28761580280546645    0.2966607413313629    0.320813718185242    0.352140638889448    0.3209894788404828    
  0.32081205855480405    0.3204044365678273    0.3204011214924151    0.3208148013737353    0.3209939061242145    
  0.32081485579895935    0.32040108940476886    0.3204045281257491    0.3208120197003115    0.3209894788404828    
  0.35214068115270986    0.32081374780411365    0.2966607256640286    0.2876158383009547    0.29666011472782816    
  0.32081490309813165    0.3521314562014655    0.37873979063929836    0.3891060949266092    0.3787379838764492    
  0.35214068115270986    0.444587950954047    0.3787371585636991    0.3204033678628753    0.2876135698120973    
  0.28761575739568074    0.3204010912800158    0.3787398549316124    0.4445943903349209    0.4890495131897367    
  0.48904976325399635    0.444587950954047    0.5829284514186445    0.489047901584092    0.38910850416889925    
  0.3204033369039031    0.29666068375169474    0.3204044652694834    0.3891061111098446    0.4890494567032274    
  0.582919198900248    0.6216945228785725    0.5829284514186445    0.7143076425317493    0.6216983401589903    
  0.4890479147929238    0.37873718976467846    0.32081374355628195    0.3208120682402483    0.37873804489046975    
  0.4890497499912496    0.6216946134857813    0.7143222060862003    0.7143076425317493    0.7683825552264301    
  0.7143076339135465    0.5829284142396376    0.44458800120324055    0.3521406287260675    0.32098951009038135    
  0.35214064323892386    0.44458797102879727    0.5829284657908361    0.7143076386415268    0.7683825552264301    
  0.6823633323579436    0.6550399673026095    0.5743074784271645    0.4681967319559332    0.38535669424968966    
  0.3553214225211287    0.3853567129682224    0.46819668373205375    0.5743075267104285    0.6550399628100207    
  0.6823633323579436    0.6550399647965156    0.6550459856275895    0.6001321594529206    0.5044610492103099    
  0.4100449374255837    0.355174652369004    0.35517387055143074    0.41004593098417524    0.5044597673683527    
  0.6001345129833421    0.6550399647965156    0.5743074264599638    0.6001320872916227    0.5743036533736471    
  0.5044628940935834    0.41932927908153406    0.35477564853633065    0.3314237866232999    0.3547740240865267    
  0.4193315158958843    0.5044597651379301    0.5743074264599638    0.46819674829268376    0.5044610756713946    
  0.5044628464768766    0.4681966411169463    0.41004490804823174    0.35477638095264413    0.32246723299587277    
  0.32247187845316144    0.3547740533592105    0.4100459530129055    0.46819674829268376    0.3853566942541754    
  0.4100449254687952    0.4193292733360131    0.41004496792773776    0.38535778822000766    0.3551715468527491    
  0.3314265650047617    0.3224672116152624    0.33142383217745874    0.3551738239563337    0.3853566942541754    
  0.3553214046096497    0.35517463596070586    0.3547756468114362    0.35477645081256426    0.35517148551562316    
  0.3553251142105847    0.3551715611380677    0.3547764090039974    0.3547757259739758    0.35517467243398343    
  0.3553214046096497    0.3853567350100275    0.355173827538646    0.33142381636849844    0.3224672486260032    
  0.33142652418736207    0.3551715505796809    0.3853578230931887    0.4100449541580184    0.41932932648920046    
  0.4100449118057128    0.3853567350100275    0.4681966653171177    0.4100459058913716    0.35477407730957644    
  0.3224718914511232    0.3224671357136531    0.35477639455615173    0.4100450159285693    0.4681966173867872    
  0.5044629231204253    0.5044610196841838    0.4681966653171177    0.5743074519599026    0.5044597742343764    
  0.4193314478273805    0.3547740268845218    0.3314237373208858    0.3547757049339584    0.4193292842417031    
  0.5044628715964244    0.5743036342560909    0.6001321909678353    0.5743074519599026    0.6550399382559569    
  0.6001346290016328    0.504459755302032    0.41004598868180414    0.35517382735202035    0.35517466470342046    
  0.410044980395164    0.5044610074705126    0.6001322236552029    0.6550459354237959    0.6550399382559569    
  0.6823633323579436    0.6550399673026095    0.5743074784271645    0.4681967319559332    0.38535669424968966    
  0.3553214225211287    0.3853567129682224    0.46819668373205375    0.5743075267104285    0.6550399628100207    
  0.6823633323579436    0.38198876456805414    0.41867566054810407    0.4864369653682038    0.504453050892295    
  0.4712822126383288    0.45042507668050596    0.4712822593894626    0.5044529974149056    0.48643702529321625    
  0.4186756572262136    0.38198876456805414    0.41867569685551387    0.41865299058492333    0.47014307713923986    
  0.5053127227451347    0.4836806189314454    0.4490351545034278    0.44903706961012996    0.48368085609982453    
  0.5053049839868091    0.47014618287520704    0.41867569685551387    0.4864369420085961    0.47014307127580224    
  0.4864660296322881    0.5053001977852319    0.48646515549498565    0.446471718262678    0.42742755590518083    
  0.44647033714215556    0.4864710231567703    0.5053049917855263    0.4864369420085961    0.5044530543559577    
  0.5053127338987214    0.5053001713644094    0.5044397914059751    0.4836778147172065    0.4464794188207823    
  0.41847670861350506    0.4184799081049275    0.4464704140158349    0.4836809060361032    0.5044530543559577    
  0.4712822470021956    0.48368068946365583    0.48646522939981207    0.4836779305219948    0.4713006896333292    
  0.4490377989301409    0.4274198591980723    0.4184766652680132    0.4274275605616402    0.44903703733676154    
  0.4712822470021956    0.4504250491989024    0.44903513202213546    0.44647167342096744    0.44647946914225606    
  0.4490376953474011    0.450404126809551    0.44903775965982173    0.44647941766476335    0.44647176642881126    
  0.4490351024940453    0.4504250491989024    0.47128229153357776    0.44903708563050954    0.42742759755878185    
  0.4184767164156295    0.42741982645978566    0.44903783728152297    0.4713006784575302    0.4836778945207365    
  0.48646524511110845    0.4836806480025247    0.47128229153357776    0.5044529805313608    0.4836808718835542    
  0.44647041611976235    0.41847993069783956    0.41847662951366843    0.44647943879247465    0.48367793509104345    
  0.504439710808318    0.5053002404045492    0.5053126942192926    0.5044529805313608    0.4864370324759203    
  0.5053049354252578    0.48647096412079477    0.4464703372413877    0.42742748585657503    0.4464716612094645    
  0.48646524699848886    0.5053001753450193    0.48646601176358883    0.47014309402865895    0.4864370324759203    
  0.4186756699042799    0.47014624764629576    0.5053049470231914    0.4836809150823768    0.4490370370440502    
  0.44903515112045306    0.48368071258129286    0.5053126811161613    0.4701431470268557    0.41865295764353666    
  0.4186756699042799    0.38198876456805414    0.41867566054810407    0.4864369653682038    0.504453050892295    
  0.4712822126383288    0.45042507668050596    0.4712822593894626    0.5044529974149056    0.48643702529321625    
  0.4186756572262136    0.38198876456805414    0.11495894243218734    0.1664301177669959    0.32767982970940923    
  0.5021747717651082    0.5616979726903608    0.5618684711346582    0.5616980015100776    0.5021747389599256    
  0.3276798327940184    0.16643011607310276    0.11495894243218734    0.16643011346120712    0.166439177904675    
  0.27579247426117676    0.4495929219712496    0.5487226546929849    0.5576118617647092    0.5576147859452912    
  0.5487284780334464    0.4495561758632546    0.27582303248698536    0.16643011346120712    0.3276797878664002    
  0.2757924336977064    0.327696867731041    0.4495684676077582    0.5390300546650001    0.5501138132404649    
  0.5416171051776322    0.5501032433287486    0.5390691061705638    0.4495561571428233    0.3276797878664002    
  0.5021747864805058    0.44959294359635366    0.449568404069662    0.5021760840097874    0.54871490402193    
  0.5501407321574392    0.5328692094263847    0.5328808222259869    0.5501033050502909    0.5487285122166256    
  0.5021747864805058    0.5616979729728953    0.5487227302440822    0.5390300749164832    0.5487150086137428    
  0.5617085504335776    0.5576223375234728    0.5415838034587523    0.5328691921575203    0.5416171669923829    
  0.5576147345096355    0.5616979729728953    0.5618684618188241    0.5576117962266973    0.5501137393098896    
  0.5501407739203767    0.5576222161790143    0.56184255766231    0.5576223280183282    0.5501407310691183    
  0.5501138372842246    0.5576118459440867    0.5618684618188241    0.5616980126675873    0.5576147336285566    
  0.5416171529216296    0.5328692588496776    0.5415837276935598    0.5576223397508538    0.5617086248403345    
  0.5487149526527914    0.5390301070346452    0.5487226452773397    0.5616980126675873    0.5021747088413089    
  0.5487284307051827    0.550103276265922    0.5328808554728849    0.5328691051389186    0.5501407281407918    
  0.5487149907547741    0.5021760116240089    0.44956843804810503    0.44959293459454797    0.5021747088413089    
  0.3276797979661675    0.44955616532159043    0.5390690300836273    0.5501032802937103    0.5416170660173062    
  0.5501137818463135    0.5390300931340539    0.44956840619087035    0.32769684195865073    0.2757924825664834    
  0.3276797979661675    0.1664301060544351    0.27582306741000473    0.4495562002827189    0.5487285416090046    
  0.557614703411145    0.5576118814851718    0.548722743187456    0.44959290978814903    0.27579249340749246    
  0.16643915776933235    0.1664301060544351    0.11495894243218734    0.1664301177669959    0.32767982970940923    
  0.5021747717651082    0.5616979726903608    0.5618684711346582    0.5616980015100776    0.5021747389599256    
  0.3276798327940184    0.16643011607310276    0.11495894243218734    0.05120721873741349    0.09181201478079068    
  0.2557326616364347    0.48863150574559    0.5991021007059231    0.6120868592726106    0.5991021430168784    
  0.48863147002557367    0.25573268591930004    0.09181201274593051    0.05120721873741349    0.09181202227005636    
  0.09185127522854272    0.19773084045772324    0.4118093725384939    0.5714024230838352    0.6064310013405991    
  0.6064179628517271    0.5714259441507074    0.411753194569341    0.19777868730113762    0.09181202227005636    
  0.2557326197657473    0.1977308413251982    0.2557098954802575    0.4117847840666425    0.5548831732038444    
  0.5964391764017235    0.594578239553574    0.5964244333436496    0.5549349340090446    0.4117531431048115    
  0.2557326197657473    0.48863146137243263    0.41180935472717284    0.41178471056141    0.48867552726447644    
  0.5713997346931508    0.596469492897408    0.5862912446830236    0.5863040143748608    0.5964245222242254    
  0.5714259505981546    0.48863146137243263    0.5991021409383445    0.5714025366694404    0.5548832236622236    
  0.5713998561605597    0.5990653664157024    0.6064373472209269    0.5945371512990413    0.5862911974436431    
  0.5945782659248786    0.606417896439858    0.5991021409383445    0.6120868331527046    0.6064310025439499    
  0.5964391261282539    0.5964695432659259    0.6064372916883628    0.6121030091600792    0.6064373712611443    
  0.5964694848081148    0.5964392535063773    0.6064309558921649    0.6120868331527046    0.5991021896290225    
  0.6064179252255245    0.5945782600700363    0.5862912697796903    0.594537065675354    0.6064374219619946    
  0.5990653957970452    0.5713997443493126    0.5548832056097869    0.5714024589375508    0.5991021896290225    
  0.488631455832675    0.5714259255885693    0.5964245209108586    0.5863040562621995    0.5862911529472328    
  0.5964695030458792    0.5713998485422793    0.4886755330621047    0.411784787209986    0.4118093594589961    
  0.488631455832675    0.2557326686242747    0.4117531146284743    0.5549348852270869    0.5964244781501864    
  0.5945781623462084    0.5964391370689648    0.5548832180760305    0.41178472498327856    0.25570986785028205    
  0.19773084450416414    0.2557326686242747    0.09181201888182082    0.19777869717208518    0.41175311874164117    
  0.5714259664525617    0.6064179141517833    0.6064310142907634    0.571402506016181    0.4118093456692409    
  0.19773087874006784    0.09185127024699051    0.09181201888182082    0.05120721873741349    0.09181201478079068    
  0.2557326616364347    0.48863150574559    0.5991021007059231    0.6120868592726106    0.5991021430168784    
  0.48863147002557367    0.25573268591930004    0.09181201274593051    0.05120721873741349    
  END_DATAGRID_3D    
  END_BLOCK_DATAGRID_3D    