#     DFTpy    
  CRYSTAL 
    
  PRIMVEC    
  1.0482171259644668    -1.8155653195342822    0.0    
  1.0482171259644668    1.8155653195342822    0.0    
  0.0    0.0    1.9730835119999997    
  PRIMCOORD    
  1    1    
  Si    0.0    0.0    0.0    
  BEGIN_BLOCK_DATAGRID_3D    
  3d_datagrid_density    
  BEGIN_DATAGRID_3D#0    
  9    9    9    
  0.0    0.0    0.0    
  1.0482171259644668    -1.8155653195342822    0.0    
  1.0482171259644668    1.8155653195342822    0.0    
  0.0    0.0    1.9730835119999997    
  0.05337722373652729    0.12004191785954645    0.38505500692755074    0.6574173408505651    0.7207695066331822    
  0.6574173343764812    0.38505500682391214    0.12004195247368883    0.05337722373652729    0.12004192531363538    
  0.11965854265707399    0.2960777097641834    0.5829115033608597    0.7086269323791614    0.7083853039160387    
  0.5827144327269033    0.2960495745634146    0.12004192531363538    0.385055069966878    0.2960776992767353    
  0.38592743754710335    0.5825606942892457    0.6959633610872585    0.7094156388593271    0.6964279316601623    
  0.5827144181532349    0.385055069966878    0.6574173034712582    0.5829114872369094    0.5825608042183604    
  0.6567958447577549    0.7083808041792128    0.7100529525218495    0.7094156221517215    0.7083852308012829    
  0.6574173034712582    0.7207696371872614    0.7086268897974348    0.6959631965096418    0.7083808702608825    
  0.7215638631169832    0.7083809026269083    0.6959632358956733    0.7086269502343747    0.7207696371872614    
  0.6574173120556682    0.708385342690923    0.7094156359722124    0.7100529994360022    0.7083809194879171    
  0.6567958846521416    0.582560678661596    0.5829114570915123    0.6574173120556682    0.3850550538227942    
  0.5827143872216186    0.6964279643015959    0.7094155721412494    0.695963329656694    0.582560723511643    
  0.38592742104806277    0.29607775398922237    0.3850550538227942    0.12004192600017641    0.2960495929893275    
  0.5827144048817511    0.7083852380973322    0.7086268637440093    0.5829115366827722    0.2960776994332209    
  0.11965853673882434    0.12004192600017641    0.05337722373652729    0.12004191785954645    0.38505500692755074    
  0.6574173408505651    0.7207695066331822    0.6574173343764812    0.38505500682391214    0.12004195247368883    
  0.05337722373652729    0.11465751479944605    0.19597293018757445    0.4407152799041066    0.6339054825723817    
  0.6670900527446079    0.6339055010011965    0.44071524309089166    0.1959729485091271    0.11465751479944605    
  0.19597293695395696    0.1955406904776615    0.3666101503799239    0.586224833697457    0.6589376340969006    
  0.6587510264547513    0.5861176636342641    0.36654331013638886    0.19597293695395696    0.4407152778911235    
  0.3666101807981598    0.44145826484530293    0.5859776993618113    0.6503231139408465    0.6501583818691634    
  0.6506172196390375    0.5861176275876906    0.4407152778911235    0.633905548611276    0.586224865522454    
  0.5859777112207109    0.6334082640486165    0.6587682889116232    0.6505613475471526    0.6501583613252627    
  0.6587509857287909    0.633905548611276    0.6670900321047829    0.6589375767078899    0.6503230876170863    
  0.6587682596954814    0.6676855632829509    0.6587682706834824    0.6503230951446818    0.6589375833614346    
  0.6670900321047829    0.6339055224847453    0.6587510788895923    0.6501583441843019    0.6505613346466025    
  0.6587682645571502    0.633408346303748    0.585977695443027    0.5862248586374412    0.6339055224847453    
  0.440715326350365    0.5861175969926384    0.6506172387956849    0.6501583492040294    0.6503232115413269    
  0.5859776849478623    0.4414583145286472    0.3666101811326425    0.440715326350365    0.19597291738433392    
  0.3665433214940098    0.5861176034103617    0.6587509954874903    0.6589375475124842    0.5862249059345449    
  0.3666100994099743    0.19554067839707692    0.19597291738433392    0.11465751479944605    0.19597293018757445    
  0.4407152799041066    0.6339054825723817    0.6670900527446079    0.6339055010011965    0.44071524309089166    
  0.1959729485091271    0.11465751479944605    0.38134477296767705    0.44451658515848036    0.5506893174380928    
  0.5687825058250311    0.5501511440819107    0.5687825239547684    0.550689252456083    0.4445165864035376    
  0.38134477296767705    0.4445165692386723    0.44425684329856574    0.5276032915117627    0.5709562555869447    
  0.5468470673646982    0.546793878860851    0.5709319490868172    0.5275554512837842    0.4445165692386723    
  0.5506892839746392    0.5276033286296659    0.5509937751317284    0.5708805007570762    0.5433616512054964    
  0.5204698899856437    0.5434294521616176    0.5709319556351323    0.5506892839746392    0.568782524064654    
  0.5709563209244981    0.5708805127733093    0.5686088309224472    0.5468010064816948    0.520567677399066    
  0.5204698472268494    0.5467938612855872    0.568782524064654    0.5501511794902522    0.5468470257706712    
  0.5433615971775666    0.5468010816709529    0.5503424516798765    0.5468010956840906    0.5433616291671718    
  0.5468470543394898    0.5501511794902522    0.5687825328707408    0.5467939873107749    0.5204698587275298    
  0.5205676698072765    0.5468010801792609    0.5686088189134687    0.5708804976401144    0.5709563200078708    
  0.5687825328707408    0.5506893325537573    0.5709318882407941    0.5434294054970942    0.5204698146319517    
  0.5433617390750209    0.5708804663411269    0.5509938149273268    0.5276033476166891    0.5506893325537573    
  0.44451656539111245    0.5275554254070003    0.5709318991788076    0.5467939106017593    0.5468469466219602    
  0.5709562902169572    0.5276033285941997    0.44425679288168146    0.44451656539111245    0.38134477296767705    
  0.44451658515848036    0.5506893174380928    0.5687825058250311    0.5501511440819107    0.5687825239547684    
  0.550689252456083    0.4445165864035376    0.38134477296767705    0.7308017522545929    0.6992431306108187    
  0.6045068368640727    0.4949606874048175    0.4484481044117296    0.4949607225496597    0.6045067758457766    
  0.6992431389204496    0.7308017522545929    0.6992431557083999    0.6992113984817085    0.6340237837313406    
  0.5263436001618712    0.4467969169181636    0.44679657000672585    0.5263438087652925    0.6340113805362112    
  0.6992431557083999    0.604506924956727    0.6340238134174944    0.6045389154246018    0.5263465114029142    
  0.4451105409029146    0.41222178291544886    0.44510651200557655    0.5263436938857091    0.604506924956727    
  0.49496073767815907    0.5263435789640193    0.5263465075481691    0.4949411647789734    0.44679203191009087    
  0.41222580932978176    0.41222178811063515    0.44679651075443505    0.49496073767815907    0.448448023505038    
  0.4467968805122284    0.44511041532385964    0.4467919965407461    0.44847497378846884    0.44679201232258825    
  0.44511044558974733    0.44679687786026256    0.448448023505038    0.49496075053118405    0.44679655510477084    
  0.4122217833740682    0.41222581678089854    0.4467919370207347    0.49494126676959715    0.5263465048790573    
  0.5263435889587325    0.49496075053118405    0.6045069734987579    0.5263437066818136    0.44510647171271883    
  0.4122217733877108    0.44511057561338835    0.5263465377381148    0.6045389081980358    0.6340237980639878    
  0.6045069734987579    0.6992430580606446    0.6340113995401613    0.5263437391588428    0.44679655334178436    
  0.4467968262574372    0.5263435640872663    0.6340237389942791    0.699211404519429    0.6992430580606446    
  0.7308017522545929    0.6992431306108187    0.6045068368640727    0.4949606874048175    0.4484481044117296    
  0.4949607225496597    0.6045067758457766    0.6992431389204496    0.7308017522545929    0.8542784130377872    
  0.776865707435842    0.6073410979922383    0.46280816907603795    0.41022541244069205    0.4628081667358238    
  0.6073411214549506    0.776865773287673    0.8542784130377872    0.7768657163859062    0.7768721250333354    
  0.6538481237464988    0.5009998097123379    0.4089871067061931    0.40899356217000354    0.5010102728123271    
  0.6538310017042429    0.7768657163859062    0.6073412272042245    0.6538481335230691    0.6073268211233442    
  0.5010170540903656    0.40774184111646755    0.3737662144656076    0.4077231692472028    0.5010102538250465    
  0.6073412272042245    0.46280814542029075    0.5009997753906263    0.5010171462131929    0.4628096141437795    
  0.40898788673729924    0.37375439832927637    0.3737662377523525    0.4089934804303522    0.46280814542029075    
  0.41022552024634773    0.4089870489361228    0.40774174857034257    0.4089879209911792    0.4102328183008339    
  0.40898792390236455    0.40774177451174404    0.4089871182200113    0.41022552024634773    0.4628081339687453    
  0.40899359406488844    0.3737662332986739    0.37375442841490886    0.40898794203294514    0.4628096510845173    
  0.5010170359785683    0.5009997666093157    0.4628081339687453    0.6073412007914114    0.5010102468773989    
  0.4077231618220524    0.3737661855259091    0.40774182263002384    0.501017073472301    0.6073268275850843    
  0.6538482013033893    0.6073412007914114    0.7768656639190687    0.6538310099074267    0.5010102584329685    
  0.4089935177682929    0.4089870318644604    0.5009998226168362    0.6538481151553825    0.7768720743629896    
  0.7768656639190687    0.8542784130377872    0.776865707435842    0.6073410979922383    0.46280816907603795    
  0.41022541244069205    0.4628081667358238    0.6073411214549506    0.776865773287673    0.8542784130377872    
  0.7308017444948793    0.6992431221283517    0.6045068862610408    0.49496071905813405    0.44844804616551975    
  0.494960724738113    0.6045068474021309    0.6992431525538071    0.7308017444948793    0.6992431358586789    
  0.6992114165780033    0.6340237914061978    0.5263435685198455    0.44679691932312593    0.4467965621574615    
  0.5263438069611439    0.6340113638236742    0.6992431358586789    0.6045068697956533    0.6340238551460509    
  0.6045389138492568    0.5263465247426092    0.4451104962047716    0.4122218017731771    0.4451065210795396    
  0.5263437648098684    0.6045068697956533    0.49496073716448796    0.526343579694058    0.5263465329305103    
  0.494941150860337    0.4467920026094332    0.41222578942031285    0.4122217899895579    0.44679649296058066    
  0.49496073716448796    0.44844804678994404    0.446796857481951    0.4451104719013421    0.4467919786846849    
  0.4484749552399574    0.4467919809545482    0.44511046529680603    0.44679688031514053    0.44844804678994404    
  0.49496073352279546    0.4467965678577693    0.4122217932841087    0.4122257817222374    0.4467919919286675    
  0.4949412108606743    0.526346518453762    0.5263435676947565    0.49496073352279546    0.6045069312932417    
  0.5263437174878085    0.4451065374000501    0.4122217740170327    0.4451105742951068    0.5263465222189998    
  0.6045389708326806    0.6340238063163068    0.6045069312932417    0.6992430824532424    0.6340114151050676    
  0.5263437238316163    0.4467965319999562    0.44679684115267376    0.5263436162678654    0.634023709673065    
  0.6992113736214204    0.6992430824532424    0.7308017444948793    0.6992431221283517    0.6045068862610408    
  0.49496071905813405    0.44844804616551975    0.494960724738113    0.6045068474021309    0.6992431525538071    
  0.7308017444948793    0.3813447763908395    0.44451657212613077    0.5506893176499719    0.5687825097174706    
  0.5501511516129992    0.5687825043841429    0.5506892571974354    0.44451658041977893    0.3813447763908395    
  0.4445165490032535    0.44425686250205143    0.5276033062064525    0.5709562772472438    0.5468470584420243    
  0.5467938750252528    0.5709319455203407    0.5275554485945393    0.4445165490032535    0.5506892967834258    
  0.5276033485125321    0.5509937768432273    0.5708804994970018    0.5433616467853043    0.5204698966823459    
  0.543429458328847    0.5709319478146293    0.5506892967834258    0.5687825180588724    0.5709563397525163    
  0.5708805379882234    0.5686088268774762    0.5468009905665792    0.5205676618416284    0.5204698335984106    
  0.546793885511038    0.5687825180588724    0.5501511854050196    0.5468470310918983    0.5433615916217346    
  0.5468010725918093    0.5503424348181418    0.5468010851549274    0.5433616168032935    0.5468470544019797    
  0.5501511854050196    0.5687825458125536    0.5467939803040708    0.5204698624263381    0.5205676525361084    
  0.5468010863018231    0.5686088080724354    0.5708804834564868    0.5709563027302721    0.5687825458125536    
  0.5506893273179071    0.5709318732956774    0.543429403925276    0.5204698257445547    0.5433617250455484    
  0.5708804484254351    0.5509938022773354    0.5276033431082177    0.5506893273179071    0.44451656429936537    
  0.527555420475616    0.5709319209979109    0.546793915634731    0.5468469674294656    0.5709562923550938    
  0.5276033085968197    0.44425679764600157    0.44451656429936537    0.3813447763908395    0.44451657212613077    
  0.5506893176499719    0.5687825097174706    0.5501511516129992    0.5687825043841429    0.5506892571974354    
  0.44451658041977893    0.3813447763908395    0.11465751661297603    0.19597292173074737    0.4407152640451688    
  0.6339054793533049    0.6670901147586332    0.633905501318549    0.4407151948177586    0.19597295163020337    
  0.11465751661297603    0.1959729310371579    0.19554068567281652    0.36661015544886266    0.5862249141407766    
  0.6589376054108298    0.6587510496119071    0.5861176560675196    0.3665433240345126    0.1959729310371579    
  0.4407153010515224    0.36661017970232257    0.4414582808270065    0.5859777047220163    0.650323171287414    
  0.6501583554649266    0.6506172072636219    0.5861175572016297    0.4407153010515224    0.63390551646981    
  0.5862248713873958    0.5859777004680059    0.6334082670650497    0.6587683095811048    0.6505613651214165    
  0.6501583509395222    0.658750999508202    0.63390551646981    0.6670899939993955    0.658937611504408    
  0.6503230518662594    0.6587682434821486    0.6676855508948463    0.6587682763943833    0.650323043984017    
  0.6589375966183844    0.6670899939993955    0.6339055471503893    0.6587510224594638    0.6501583453627555    
  0.6505613533712863    0.6587682047686225    0.6334083864608363    0.585977672819303    0.5862248862952611    
  0.6339055471503893    0.4407153667305252    0.5861175710228861    0.6506171775149963    0.6501583488324323    
  0.6503232254648089    0.585977696760577    0.44145825300646774    0.36661015881461695    0.4407153667305252    
  0.1959729161196431    0.36654332188624905    0.5861175982951454    0.6587510110734985    0.6589375365226764    
  0.5862248564896566    0.3666101042488504    0.19554069039049352    0.1959729161196431    0.11465751661297603    
  0.19597292173074737    0.4407152640451688    0.6339054793533049    0.6670901147586332    0.633905501318549    
  0.4407151948177586    0.19597295163020337    0.11465751661297603    0.05337722373652729    0.12004191785954645    
  0.38505500692755074    0.6574173408505651    0.7207695066331822    0.6574173343764812    0.38505500682391214    
  0.12004195247368883    0.05337722373652729    0.12004192531363538    0.11965854265707399    0.2960777097641834    
  0.5829115033608597    0.7086269323791614    0.7083853039160387    0.5827144327269033    0.2960495745634146    
  0.12004192531363538    0.385055069966878    0.2960776992767353    0.38592743754710335    0.5825606942892457    
  0.6959633610872585    0.7094156388593271    0.6964279316601623    0.5827144181532349    0.385055069966878    
  0.6574173034712582    0.5829114872369094    0.5825608042183604    0.6567958447577549    0.7083808041792128    
  0.7100529525218495    0.7094156221517215    0.7083852308012829    0.6574173034712582    0.7207696371872614    
  0.7086268897974348    0.6959631965096418    0.7083808702608825    0.7215638631169832    0.7083809026269083    
  0.6959632358956733    0.7086269502343747    0.7207696371872614    0.6574173120556682    0.708385342690923    
  0.7094156359722124    0.7100529994360022    0.7083809194879171    0.6567958846521416    0.582560678661596    
  0.5829114570915123    0.6574173120556682    0.3850550538227942    0.5827143872216186    0.6964279643015959    
  0.7094155721412494    0.695963329656694    0.582560723511643    0.38592742104806277    0.29607775398922237    
  0.3850550538227942    0.12004192600017641    0.2960495929893275    0.5827144048817511    0.7083852380973322    
  0.7086268637440093    0.5829115366827722    0.2960776994332209    0.11965853673882434    0.12004192600017641    
  0.05337722373652729    0.12004191785954645    0.38505500692755074    0.6574173408505651    0.7207695066331822    
  0.6574173343764812    0.38505500682391214    0.12004195247368883    0.05337722373652729    
  END_DATAGRID_3D    
  END_BLOCK_DATAGRID_3D    